@<TRIPOS>MOLECULE
PA8
   63    62     1     0     0
SMALL
bcc


@<TRIPOS>ATOM
      1 O1          1.8420   -1.2270    1.0140 o         1 PA8     -0.914833
      2 O2          3.4080    0.7620    0.7700 o         1 PA8     -0.914833
      3 P1          3.2180   -0.7220    0.6900 p5        1 PA8      1.323900
      4 O3          4.3750   -1.5790    1.1570 o         1 PA8     -0.914833
      5 O4          3.3510   -1.0260   -1.0250 os        1 PA8     -0.564200
      6 C1          2.2130   -0.8150   -1.7410 c3        1 PA8      0.234400
      7 C2          1.9680   -1.9010   -2.8240 c3        1 PA8      0.091100
      8 C3          3.2170   -2.3200   -3.5970 c3        1 PA8      0.144400
      9 O5          3.9890   -3.2390   -2.8310 os        1 PA8     -0.457900
     10 C4          5.2290   -2.8040   -2.3940 c         1 PA8      0.697100
     11 O6          5.8970   -2.1540   -3.2090 o         1 PA8     -0.614000
     12 C5          5.5400   -3.2380   -1.0160 c3        1 PA8     -0.219400
     13 C6          7.0020   -3.1290   -0.6610 c3        1 PA8     -0.037400
     14 C7          7.1570   -3.0970    0.8460 c3        1 PA8     -0.114400
     15 C8          8.5650   -2.7240    1.2510 c3        1 PA8     -0.065400
     16 C9          8.7020   -2.6810    2.7590 c3        1 PA8     -0.081400
     17 C10        10.0950   -2.2630    3.1800 c3        1 PA8     -0.079400
     18 C11        10.2330   -2.2240    4.6810 c3        1 PA8     -0.088100
     19 O7          1.4040   -3.0300   -2.1300 os        1 PA8     -0.348900
     20 C12         0.6620   -3.9180   -2.8170 c         1 PA8      0.630100
     21 O8          0.4120   -3.7580   -4.0230 o         1 PA8     -0.623000
     22 C13         0.2090   -5.0560   -1.9450 c3        1 PA8     -0.139400
     23 C14        -1.1550   -5.5600   -2.3600 c3        1 PA8     -0.074400
     24 C15        -1.5460   -6.7840   -1.5600 c3        1 PA8     -0.079400
     25 C16        -2.9210   -7.2800   -1.9550 c3        1 PA8     -0.077400
     26 C17        -3.3120   -8.5070   -1.1590 c3        1 PA8     -0.079400
     27 C18        -4.6870   -9.0050   -1.5510 c3        1 PA8     -0.080400
     28 C19        -5.0810  -10.2260   -0.7610 c3        1 PA8     -0.090100
     29 H2          1.3090   -0.7780   -1.0660 h1        1 PA8      0.012700
     30 H3          2.2850    0.1430   -2.3460 h1        1 PA8      0.012700
     31 H4          1.2110   -1.5220   -3.5670 h1        1 PA8      0.023700
     32 H5          3.8100   -1.4070   -3.8600 h1        1 PA8      0.043200
     33 H6          2.9250   -2.8840   -4.5250 h1        1 PA8      0.043200
     34 H7          5.1430   -4.2650   -0.8290 hc        1 PA8      0.153200
     35 H8          4.9190   -2.5180   -0.3200 hc        1 PA8      0.153200
     36 H9          7.4200   -2.1870   -1.1050 hc        1 PA8      0.012700
     37 H10         7.5850   -3.9860   -1.0940 hc        1 PA8      0.012700
     38 H11         6.8960   -4.1010    1.2710 hc        1 PA8      0.089700
     39 H12         6.4050   -2.3540    1.2650 hc        1 PA8      0.089700
     40 H13         8.8210   -1.7190    0.8250 hc        1 PA8      0.016700
     41 H14         9.2990   -3.4600    0.8280 hc        1 PA8      0.016700
     42 H15         8.4670   -3.6900    3.1870 hc        1 PA8      0.047700
     43 H16         7.9460   -1.9610    3.1740 hc        1 PA8      0.047700
     44 H17        10.3230   -1.2500    2.7560 hc        1 PA8      0.027200
     45 H18        10.8470   -2.9770    2.7510 hc        1 PA8      0.027200
     46 H19         9.5020   -1.5050    5.1210 hc        1 PA8      0.021700
     47 H20        11.2630   -1.9060    4.9730 hc        1 PA8      0.021700
     48 H21        10.0380   -3.2320    5.1200 hc        1 PA8      0.021700
     49 H22         0.9760   -5.8700   -2.0360 hc        1 PA8      0.083700
     50 H23         0.2020   -4.7130   -0.8750 hc        1 PA8      0.083700
     51 H24        -1.9140   -4.7480   -2.2070 hc        1 PA8      0.046700
     52 H25        -1.1470   -5.8010   -3.4560 hc        1 PA8      0.046700
     53 H26        -1.5340   -6.5350   -0.4660 hc        1 PA8      0.040700
     54 H27        -0.7910   -7.5970   -1.7230 hc        1 PA8      0.040700
     55 H28        -3.6750   -6.4670   -1.7870 hc        1 PA8      0.036700
     56 H29        -2.9330   -7.5220   -3.0500 hc        1 PA8      0.036700
     57 H30        -2.5570   -9.3200   -1.3250 hc        1 PA8      0.038700
     58 H31        -3.2990   -8.2640   -0.0640 hc        1 PA8      0.038700
     59 H32        -5.4400   -8.1900   -1.3840 hc        1 PA8      0.035700
     60 H33        -4.6990   -9.2450   -2.6470 hc        1 PA8      0.035700
     61 H34        -5.0980   -9.9990    0.3320 hc        1 PA8      0.026700
     62 H35        -6.0970  -10.5770   -1.0650 hc        1 PA8      0.026700
     63 H36        -4.3560  -11.0570   -0.9330 hc        1 PA8      0.026700
@<TRIPOS>BOND
     1    1    3 1   
     2    2    3 1   
     3    3    4 1   
     4    3    5 1   
     5    5    6 1   
     6    6    7 1   
     7    6   29 1   
     8    6   30 1   
     9    7    8 1   
    10    7   19 1   
    11    7   31 1   
    12    8    9 1   
    13    8   32 1   
    14    8   33 1   
    15    9   10 1   
    16   10   11 2   
    17   10   12 1   
    18   12   13 1   
    19   12   34 1   
    20   12   35 1   
    21   13   14 1   
    22   13   36 1   
    23   13   37 1   
    24   14   15 1   
    25   14   38 1   
    26   14   39 1   
    27   15   16 1   
    28   15   40 1   
    29   15   41 1   
    30   16   17 1   
    31   16   42 1   
    32   16   43 1   
    33   17   18 1   
    34   17   44 1   
    35   17   45 1   
    36   18   46 1   
    37   18   47 1   
    38   18   48 1   
    39   19   20 1   
    40   20   21 2   
    41   20   22 1   
    42   22   23 1   
    43   22   49 1   
    44   22   50 1   
    45   23   24 1   
    46   23   51 1   
    47   23   52 1   
    48   24   25 1   
    49   24   53 1   
    50   24   54 1   
    51   25   26 1   
    52   25   55 1   
    53   25   56 1   
    54   26   27 1   
    55   26   57 1   
    56   26   58 1   
    57   27   28 1   
    58   27   59 1   
    59   27   60 1   
    60   28   61 1   
    61   28   62 1   
    62   28   63 1   
@<TRIPOS>SUBSTRUCTURE
     1 PA8         1 TEMP              0 ****  ****    0 ROOT
