@<TRIPOS>MOLECULE
molecule
   63    62     1     0     0
SMALL
bcc


@<TRIPOS>ATOM
      1 O1           0.0000     0.0000     0.0000 o          1 PA8      -0.909167
      2 O2           2.0600     1.2630    -0.7270 o          1 PA8      -0.909167
      3 P1           1.5450     0.0000     0.0000 p5         1 PA8       1.144900
      4 O3           2.0810     0.0000     1.5180 o          1 PA8      -0.909167
      5 O4           2.0830    -1.3140    -0.7590 os         1 PA8      -0.521200
      6 C1           1.4800    -1.3170    -2.0550 c3         1 PA8       0.142400
      7 C2           1.9510    -2.5470    -2.8340 c3         1 PA8       0.145100
      8 C3           3.4820    -2.5710    -2.8710 c3         1 PA8       0.173400
      9 O5           4.0000    -2.5090    -1.5170 os         1 PA8      -0.329900
     10 C4           5.3250    -2.5190    -1.3030 c          1 PA8       0.647100
     11 O6           6.0870    -2.5770    -2.2400 o          1 PA8      -0.629000
     12 C5           5.8630    -2.4540     0.1020 c3         1 PA8      -0.125400
     13 C6           7.3930    -2.4790     0.0650 c3         1 PA8      -0.071400
     14 C7           7.9390    -2.4130     1.4930 c3         1 PA8      -0.084400
     15 C8           9.4680    -2.4380     1.4550 c3         1 PA8      -0.081400
     16 C9          10.0150    -2.3730     2.8830 c3         1 PA8      -0.082400
     17 C10         11.5440    -2.3970     2.8450 c3         1 PA8      -0.084400
     18 C11         12.0900    -2.3320     4.2730 c3         1 PA8      -0.092100
     19 O7           1.4650    -3.7500    -2.1810 os         1 PA8      -0.405900
     20 C12          0.2740    -4.2650    -2.5270 c          1 PA8       0.645100
     21 O8          -0.3910    -3.7300    -3.3810 o          1 PA8      -0.581000
     22 C13         -0.2310    -5.5130    -1.8490 c3         1 PA8      -0.127400
     23 C14         -1.6000    -5.8850    -2.4230 c3         1 PA8      -0.071400
     24 C15         -2.1130    -7.1520    -1.7350 c3         1 PA8      -0.084400
     25 C16         -3.4820    -7.5250    -2.3080 c3         1 PA8      -0.080400
     26 C17         -3.9940    -8.7920    -1.6210 c3         1 PA8      -0.082400
     27 C18         -5.3630    -9.1640    -2.1940 c3         1 PA8      -0.084400
     28 C19         -5.8760   -10.4310    -1.5070 c3         1 PA8      -0.092100
     29 H2           0.4020    -1.3460    -1.9520 h1         1 PA8       0.057200
     30 H3           1.7680    -0.4190    -2.5890 h1         1 PA8       0.057200
     31 H4           1.5660    -2.5040    -3.8450 h1         1 PA8       0.044700
     32 H5           3.8430    -1.7200    -3.4350 h1         1 PA8       0.031700
     33 H6           3.8170    -3.4860    -3.3450 h1         1 PA8       0.031700
     34 H7           5.5290    -1.5390     0.5760 hc         1 PA8       0.092700
     35 H8           5.5020    -3.3050     0.6670 hc         1 PA8       0.092700
     36 H9           7.7280    -3.3940    -0.4090 hc         1 PA8       0.044700
     37 H10          7.7540    -1.6270    -0.4990 hc         1 PA8       0.044700
     38 H11          7.5780    -3.2650     2.0570 hc         1 PA8       0.046700
     39 H12          7.6040    -1.4980     1.9660 hc         1 PA8       0.046700
     40 H13          9.8290    -1.5870     0.8910 hc         1 PA8       0.035700
     41 H14          9.8030    -3.3530     0.9820 hc         1 PA8       0.035700
     42 H15          9.6800    -1.4580     3.3560 hc         1 PA8       0.042200
     43 H16          9.6530    -3.2240     3.4470 hc         1 PA8       0.042200
     44 H17         11.9050    -1.5460     2.2810 hc         1 PA8       0.035700
     45 H18         11.8790    -3.3120     2.3720 hc         1 PA8       0.035700
     46 H19         11.7290    -3.1830     4.8370 hc         1 PA8       0.027033
     47 H20         11.7550    -1.4170     4.7460 hc         1 PA8       0.027033
     48 H21         13.1730    -2.3490     4.2460 hc         1 PA8       0.027033
     49 H22         -0.3230    -5.3340    -0.7840 hc         1 PA8       0.066700
     50 H23          0.4660    -6.3240    -2.0200 hc         1 PA8       0.066700
     51 H24         -2.2960    -5.0730    -2.2520 hc         1 PA8       0.056700
     52 H25         -1.5080    -6.0640    -3.4880 hc         1 PA8       0.056700
     53 H26         -1.4170    -7.9640    -1.9060 hc         1 PA8       0.037700
     54 H27         -2.2040    -6.9730    -0.6700 hc         1 PA8       0.037700
     55 H28         -3.3910    -7.7040    -3.3730 hc         1 PA8       0.041700
     56 H29         -4.1790    -6.7140    -2.1370 hc         1 PA8       0.041700
     57 H30         -4.0850    -8.6130    -0.5560 hc         1 PA8       0.038700
     58 H31         -3.2980    -9.6030    -1.7930 hc         1 PA8       0.038700
     59 H32         -5.2720    -9.3420    -3.2590 hc         1 PA8       0.038700
     60 H33         -6.0600    -8.3520    -2.0220 hc         1 PA8       0.038700
     61 H34         -6.8460   -10.6950    -1.9130 hc         1 PA8       0.027367
     62 H35         -5.9670   -10.2530    -0.4420 hc         1 PA8       0.027367
     63 H36         -5.1800   -11.2430    -1.6790 hc         1 PA8       0.027367
@<TRIPOS>BOND
     1     1     3 1
     2     2     3 1
     3     3     4 1
     4     3     5 1
     5     5     6 1
     6     6     7 1
     7     6    29 1
     8     6    30 1
     9     7     8 1
    10     7    19 1
    11     7    31 1
    12     8     9 1
    13     8    32 1
    14     8    33 1
    15     9    10 1
    16    10    11 2
    17    10    12 1
    18    12    13 1
    19    12    34 1
    20    12    35 1
    21    13    14 1
    22    13    36 1
    23    13    37 1
    24    14    15 1
    25    14    38 1
    26    14    39 1
    27    15    16 1
    28    15    40 1
    29    15    41 1
    30    16    17 1
    31    16    42 1
    32    16    43 1
    33    17    18 1
    34    17    44 1
    35    17    45 1
    36    18    46 1
    37    18    47 1
    38    18    48 1
    39    19    20 1
    40    20    21 2
    41    20    22 1
    42    22    23 1
    43    22    49 1
    44    22    50 1
    45    23    24 1
    46    23    51 1
    47    23    52 1
    48    24    25 1
    49    24    53 1
    50    24    54 1
    51    25    26 1
    52    25    55 1
    53    25    56 1
    54    26    27 1
    55    26    57 1
    56    26    58 1
    57    27    28 1
    58    27    59 1
    59    27    60 1
    60    28    61 1
    61    28    62 1
    62    28    63 1
@<TRIPOS>SUBSTRUCTURE
     1 PA8         1 TEMP              0 ****  ****    0 ROOT
