@<TRIPOS>MOLECULE
PA9
   33    32     1     0     0
SMALL
bcc


@<TRIPOS>ATOM
      1 CA           1.5070     0.0000     0.0000 c3         1 PA9      -0.103300
      2 CB           2.0170     0.0000     1.4420 c3         1 PA9      -0.020400
      3 CG           3.5420    -0.1250     1.4450 c3         1 PA9      -0.056400
      4 CD           4.0520    -0.1250     2.8870 c3         1 PA9       0.058000
      5 C            0.0000     0.0000     0.0000 c          1 PA9       0.985600
      6 O           -0.6030     0.9060    -0.5240 o          1 PA9      -0.907800
      7 OXT         -0.6700    -1.0060     0.5820 o          1 PA9      -0.907800
      8 C1           2.1240     1.1920    -2.0330 c          1 PA9       0.563100
      9 O1           1.8360     0.2000    -2.6680 o          1 PA9      -0.682100
     10 P            8.1530    -2.1180     4.4080 p5         1 PA9       0.433700
     11 O1P          7.5230    -2.5530     5.6750 o          1 PA9      -0.742500
     12 O2P          9.7540    -2.2260     4.5400 o          1 PA9      -0.742500
     13 O3P          7.6490    -3.0630     3.2070 o          1 PA9      -0.742500
     14 N1           1.9960     1.1950    -0.6910 ns         1 PA9      -0.118900
     15 C2           2.6270     2.4220    -2.7440 c3         1 PA9      -0.075100
     16 N2           5.5120    -0.2460     2.8890 ns         1 PA9      -0.243900
     17 C3           6.1850    -0.2660     4.0570 c          1 PA9       0.641100
     18 O2           5.5810    -0.1860     5.1050 o          1 PA9      -0.723100
     19 C4           7.6870    -0.3910     4.0590 c3         1 PA9      -0.099600
     20 HA           1.8680    -0.8850    -0.5100 h1         1 PA9       0.061700
     21 HB           1.5850    -0.8370     1.9780 hc         1 PA9       0.026700
     22 HBA          1.7300     0.9250     1.9270 hc         1 PA9       0.026700
     23 HG           3.8290    -1.0510     0.9600 hc         1 PA9       0.008700
     24 HGA          3.9740     0.7120     0.9090 hc         1 PA9       0.008700
     25 HD           3.6200    -0.9620     3.4230 h1         1 PA9       0.006700
     26 HDA          3.7650     0.8000     3.3710 h1         1 PA9       0.006700
     27 HN1          2.1970     2.0260    -0.1720 hn         1 PA9       0.151500
     28 H2           2.0770     3.2890    -2.3980 hc         1 PA9       0.004033
     29 H2A          3.6810     2.5560    -2.5320 hc         1 PA9       0.004033
     30 H2B          2.4850     2.3060    -3.8110 hc         1 PA9       0.004033
     31 HN2          6.0130    -0.2730     2.0230 hn         1 PA9       0.170500
     32 H4           8.1020     0.2560     4.8220 hc         1 PA9       0.001700
     33 H4A          8.0740    -0.1010     3.0900 hc         1 PA9       0.001700
@<TRIPOS>BOND
     1     1     2 1   
     2     1     5 1   
     3     1    14 1   
     4     1    20 1   
     5     2     3 1   
     6     2    21 1   
     7     2    22 1   
     8     3     4 1   
     9     3    23 1   
    10     3    24 1   
    11     4    16 1   
    12     4    25 1   
    13     4    26 1   
    14     5     6 1   
    15     5     7 1   
    16     8     9 2   
    17     8    14 1   
    18     8    15 1   
    19    10    11 1   
    20    10    12 1   
    21    10    13 1   
    22    10    19 1   
    23    14    27 1   
    24    15    28 1   
    25    15    29 1   
    26    15    30 1   
    27    16    17 1   
    28    16    31 1   
    29    17    18 2   
    30    17    19 1   
    31    19    32 1   
    32    19    33 1   
@<TRIPOS>SUBSTRUCTURE
     1 PA9         1 TEMP              0 ****  ****    0 ROOT
