@<TRIPOS>MOLECULE
molecule
   20    20     1     0     0
SMALL
bcc


@<TRIPOS>ATOM
      1 CM           0.0000     0.0000     0.0000 c3         1 PAA      -0.011400
      2 N1           1.4650     0.0000     0.0000 na         1 PAA       0.038900
      3 C2           2.1070     0.0000     1.1530 ca         1 PAA      -0.061800
      4 C3           3.4880     0.0000     1.1930 ca         1 PAA      -0.131500
      5 C4           4.1980    -0.0020     0.0010 ca         1 PAA       0.104700
      6 C5           3.4890    -0.0010    -1.1900 ca         1 PAA      -0.131500
      7 C6           2.1070    -0.0060    -1.1510 ca         1 PAA      -0.061800
      8 C2'          5.7050    -0.0020     0.0020 c3         1 PAA      -0.177100
      9 C1'          6.2070    -1.4230     0.0020 c          1 PAA       0.894600
     10 O1'          5.4210    -2.3410     0.0020 o          1 PAA      -0.796300
     11 O2'          7.5270    -1.6690     0.0030 o          1 PAA      -0.796300
     12 HM1         -0.3610     0.0180    -1.0210 h1         1 PAA       0.079700
     13 HM2         -0.3610    -0.8930     0.4950 h1         1 PAA       0.079700
     14 HM3         -0.3610     0.8750     0.5260 h1         1 PAA       0.079700
     15 H2           1.5440     0.0010     2.0780 h4         1 PAA       0.183000
     16 H3           4.0090    -0.0000     2.1420 ha         1 PAA       0.190000
     17 H5           4.0110    -0.0040    -2.1400 ha         1 PAA       0.190000
     18 H6           1.5450    -0.0060    -2.0780 h4         1 PAA       0.183000
     19 H2'1         6.0670     0.5090    -0.8820 hc         1 PAA       0.073700
     20 H2'2         6.0660     0.5080     0.8870 hc         1 PAA       0.073700
@<TRIPOS>BOND
     1     1     2 1
     2     1    12 1
     3     1    13 1
     4     1    14 1
     5     2     3 1
     6     2     7 2
     7     3     4 ar
     8     3    15 1
     9     4     5 ar
    10     4    16 1
    11     5     6 ar
    12     5     8 1
    13     6     7 ar
    14     6    17 1
    15     7    18 1
    16     8     9 1
    17     8    19 1
    18     8    20 1
    19     9    10 1
    20     9    11 1
@<TRIPOS>SUBSTRUCTURE
     1 PAA         1 TEMP              0 ****  ****    0 ROOT
