@<TRIPOS>MOLECULE
PAA
   20    19     1     0     0
SMALL
bcc


@<TRIPOS>ATOM
      1 CM          0.9440   -1.1720    0.0500 c3        1 PAA      0.199100
      2 N1          1.9410   -0.1400    0.0010 na        1 PAA     -0.537200
      3 C2          2.5600    0.2890    1.1750 cc        1 PAA      0.053000
      4 C3          3.6730    1.0690    1.1680 cd        1 PAA     -0.206000
      5 C4          4.3120    1.4650   -0.0780 cd        1 PAA     -0.007000
      6 C5          3.6650    0.9590   -1.2800 cd        1 PAA     -0.206000
      7 C6          2.5530    0.1820   -1.2100 cc        1 PAA      0.053000
      8 C2'         5.4130    2.2350   -0.1160 c2        1 PAA     -0.276000
      9 C1'         4.2320   -4.1780    0.1760 c1        1 PAA      0.884000
     10 O1'         3.0790   -3.8840    0.1650 o         1 PAA     -0.442000
     11 O2'         5.3820   -4.4770    0.1870 o         1 PAA     -0.442000
     12 HM1         1.4160   -2.1930    0.0950 h1        1 PAA      0.047367
     13 HM2         0.3020   -1.0300    0.9600 h1        1 PAA      0.047367
     14 HM3         0.2960   -1.1110   -0.8640 h1        1 PAA      0.047367
     15 H2          2.0650   -0.0250    2.1100 h4        1 PAA      0.143000
     16 H3          4.1100    1.4220    2.1110 ha        1 PAA      0.140000
     17 H5          4.0970    1.2270   -2.2530 ha        1 PAA      0.140000
     18 H6          2.0530   -0.2140   -2.1110 h4        1 PAA      0.143000
     19 H2'1        5.8930    2.6110    0.7940 ha        1 PAA      0.109000
     20 H2'2        5.8870    2.5280   -1.0590 ha        1 PAA      0.109000
@<TRIPOS>BOND
     1    1    2 1   
     2    1   12 1   
     3    1   13 1   
     4    1   14 1   
     5    2    3 1   
     6    2    7 1   
     7    3    4 2   
     8    3   15 1   
     9    4    5 1   
    10    4   16 1   
    11    5    6 1   
    12    5    8 2   
    13    6    7 2   
    14    6   17 1   
    15    7   18 1   
    16    8   19 1   
    17    8   20 1   
    18    9   10 2   
    19    9   11 2   
@<TRIPOS>SUBSTRUCTURE
     1 PAA         1 TEMP              0 ****  ****    0 ROOT
