@<TRIPOS>MOLECULE
PAB
   16    16     1     0     0
SMALL
bcc


@<TRIPOS>ATOM
      1 C1'          0.0000     0.0000     0.0000 c          1 PAB       0.974200
      2 O1'          1.2150     0.0000     0.0000 o          1 PAB      -0.887800
      3 O2'         -0.6730     0.0000     1.1660 o          1 PAB      -0.887800
      4 C1          -0.7370     0.0000    -1.2770 ca         1 PAB      -0.101600
      5 C2          -0.0380     0.0000    -2.4880 ca         1 PAB      -0.073500
      6 C3          -0.7270     0.0000    -3.6740 ca         1 PAB      -0.149500
      7 C4          -2.1180    -0.0010    -3.6730 ca         1 PAB      -0.017400
      8 C5          -2.8160     0.0030    -2.4680 ca         1 PAB      -0.149500
      9 C6          -2.1330    -0.0010    -1.2790 ca         1 PAB      -0.073500
     10 N4          -2.8130    -0.0010    -4.8770 nv         1 PAB      -0.558200
     11 H2           1.0460     0.0010    -2.4900 ha         1 PAB       0.122500
     12 H3          -0.1870    -0.0020    -4.6130 ha         1 PAB       0.086500
     13 H5          -3.8990     0.0020    -2.4700 ha         1 PAB       0.086500
     14 H6          -2.6770     0.0020    -0.3420 ha         1 PAB       0.122500
     15 HN41        -3.0620     0.8660    -5.3110 hn         1 PAB       0.253800
     16 HN42        -3.0630    -0.8680    -5.3100 hn         1 PAB       0.253800
@<TRIPOS>BOND
     1     1     2 1   
     2     1     3 1   
     3     1     4 1   
     4     4     5 ar  
     5     4     9 ar  
     6     5     6 ar  
     7     5    11 1   
     8     6     7 ar  
     9     6    12 1   
    10     7     8 ar  
    11     7    10 1   
    12     8     9 ar  
    13     8    13 1   
    14     9    14 1   
    15    10    15 1   
    16    10    16 1   
@<TRIPOS>SUBSTRUCTURE
     1 PAB         1 TEMP              0 ****  ****    0 ROOT
