@<TRIPOS>MOLECULE
molecule
   17    17     1     0     0
SMALL
bcc


@<TRIPOS>ATOM
      1 C1           0.0000     0.0000     0.0000 c          1 PAC       0.893600
      2 C2           1.5060     0.0000     0.0000 c3         1 PAC      -0.154100
      3 C1'          2.0090     0.0000     1.4200 ca         1 PAC       0.006700
      4 C2'          2.2390    -1.1960     2.0710 ca         1 PAC      -0.118000
      5 C3'          2.7010    -1.1950     3.3740 ca         1 PAC      -0.144500
      6 C4'          2.9320     0.0020     4.0260 ca         1 PAC      -0.165000
      7 C5'          2.7020     1.1980     3.3740 ca         1 PAC      -0.144500
      8 C6'          2.2440     1.1980     2.0690 ca         1 PAC      -0.118000
      9 O1          -0.6040    -0.0010     1.0460 o          1 PAC      -0.845300
     10 O2          -0.6730    -0.0010    -1.1610 o          1 PAC      -0.845300
     11 H21          1.8670     0.8840    -0.5110 hc         1 PAC       0.038200
     12 H22          1.8670    -0.8840    -0.5110 hc         1 PAC       0.038200
     13 H2'          2.0960    -2.1340     1.5480 ha         1 PAC       0.123500
     14 H3'          2.8850    -2.1330     3.8850 ha         1 PAC       0.104500
     15 H4'          3.2880     0.0020     5.0490 ha         1 PAC       0.101000
     16 H5'          2.8850     2.1360     3.8840 ha         1 PAC       0.104500
     17 H6'          2.2110     2.2210     1.7160 ha         1 PAC       0.123500
@<TRIPOS>BOND
     1     1     2 1
     2     1     9 1
     3     1    10 1
     4     2     3 1
     5     2    11 1
     6     2    12 1
     7     3     4 ar
     8     3     8 ar
     9     4     5 ar
    10     4    13 1
    11     5     6 ar
    12     5    14 1
    13     6     7 ar
    14     6    15 1
    15     7     8 ar
    16     7    16 1
    17     8    17 1
@<TRIPOS>SUBSTRUCTURE
     1 PAC         1 TEMP              0 ****  ****    0 ROOT
