@<TRIPOS>MOLECULE
PAC
   17    17     1     0     0
SMALL
bcc


@<TRIPOS>ATOM
      1 C1          0.0580   -0.6440   -0.0660 c         1 PAC      0.918600
      2 C2          1.4970   -0.0850    0.0400 c3        1 PAC     -0.176100
      3 C1'         1.9770    0.0700    1.4330 ca        1 PAC     -0.014300
      4 C2'         1.7960   -0.9640    2.3670 ca        1 PAC     -0.138500
      5 C3'         2.2800   -0.8330    3.6640 ca        1 PAC     -0.145500
      6 C4'         2.9490    0.3280    4.0550 ca        1 PAC     -0.169000
      7 C5'         3.1230    1.3640    3.1400 ca        1 PAC     -0.145500
      8 C6'         2.6390    1.2370    1.8380 ca        1 PAC     -0.138500
      9 O1         -0.1490   -1.8360    0.3050 o         1 PAC     -0.841800
     10 O2         -0.8240    0.1100   -0.5600 o         1 PAC     -0.841800
     11 H21         1.5370    0.8970   -0.4980 hc        1 PAC      0.037200
     12 H22         2.1710   -0.8060   -0.4930 hc        1 PAC      0.037200
     13 H2'         1.2330   -1.8610    2.0440 ha        1 PAC      0.152000
     14 H3'         2.1290   -1.6470    4.3880 ha        1 PAC      0.106500
     15 H4'         3.3310    0.4270    5.0800 ha        1 PAC      0.103000
     16 H5'         3.6390    2.2850    3.4440 ha        1 PAC      0.106500
     17 H6'         2.7710    2.0620    1.1230 ha        1 PAC      0.152000
@<TRIPOS>BOND
     1    1    2 1   
     2    1    9 1   
     3    1   10 1   
     4    2    3 1   
     5    2   11 1   
     6    2   12 1   
     7    3    4 ar  
     8    3    8 ar  
     9    4    5 ar  
    10    4   13 1   
    11    5    6 ar  
    12    5   14 1   
    13    6    7 ar  
    14    6   15 1   
    15    7    8 ar  
    16    7   16 1   
    17    8   17 1   
@<TRIPOS>SUBSTRUCTURE
     1 PAC         1 TEMP              0 ****  ****    0 ROOT
