@<TRIPOS>MOLECULE
molecule
   10     9     1     0     0
SMALL
bcc


@<TRIPOS>ATOM
      1 P            0.0000     0.0000     0.0000 p5         1 PAE       1.119700
      2 O1P          1.6090     0.0000     0.0000 o          1 PAE      -0.952833
      3 O2P         -0.5360     0.0000     1.5170 o          1 PAE      -0.952833
      4 O3P         -0.4930    -1.2090    -0.6970 o          1 PAE      -0.952833
      5 C1P         -0.6090     1.4870    -0.8590 c3         1 PAE      -0.345600
      6 C1          -2.1150     1.4860    -0.8590 c          1 PAE       0.941600
      7 O1          -2.7860     0.9050    -1.8650 o          1 PAE      -0.926300
      8 O2          -2.7190     2.0100     0.0470 o          1 PAE      -0.926300
      9 H11         -0.2470     1.4870    -1.8800 hc         1 PAE      -0.002300
     10 H12         -0.2480     2.3720    -0.3480 hc         1 PAE      -0.002300
@<TRIPOS>BOND
     1     1     2 1
     2     1     3 1
     3     1     4 1
     4     1     5 1
     5     5     6 1
     6     5     9 1
     7     5    10 1
     8     6     7 1
     9     6     8 1
@<TRIPOS>SUBSTRUCTURE
     1 PAE         1 TEMP              0 ****  ****    0 ROOT
