@<TRIPOS>MOLECULE
PAE
   10     9     1     0     0
SMALL
bcc


@<TRIPOS>ATOM
      1 P           0.1360   -0.1310    0.0860 p5        1 PAE      1.224700
      2 O1P         1.3370   -0.2230   -0.8420 o         1 PAE     -0.973500
      3 O2P         0.5400    0.3680    1.4660 o         1 PAE     -0.973500
      4 O3P        -0.6780   -1.4040    0.1310 o         1 PAE     -0.973500
      5 C1P        -0.8120    1.3390   -0.6190 c3        1 PAE     -0.345600
      6 C1         -2.2150    1.5300   -1.1510 c         1 PAE      0.949600
      7 O1         -2.4710    1.4190   -2.4040 o         1 PAE     -0.960300
      8 O2         -3.1650    1.9370   -0.3900 o         1 PAE     -0.960300
      9 H11        -0.1210    1.6370   -1.4430 hc        1 PAE      0.005700
     10 H12        -0.6950    2.0650    0.2210 hc        1 PAE      0.005700
@<TRIPOS>BOND
     1    1    2 1   
     2    1    3 1   
     3    1    4 1   
     4    1    5 1   
     5    5    6 1   
     6    5    9 1   
     7    5   10 1   
     8    6    7 1   
     9    6    8 1   
@<TRIPOS>SUBSTRUCTURE
     1 PAE         1 TEMP              0 ****  ****    0 ROOT
