@<TRIPOS>MOLECULE
molecule
   21    20     1     0     0
SMALL
bcc


@<TRIPOS>ATOM
      1 O1           0.0000     0.0000     0.0000 o          1 PAF      -0.836800
      2 C1           1.2200     0.0000     0.0000 c          1 PAF       0.905600
      3 O2           1.8300    -0.0000    -1.0560 o          1 PAF      -0.836800
      4 C2           1.9720     0.0000     1.3050 c3         1 PAF       0.020100
      5 O3           1.0480    -0.1180     2.3890 oh         1 PAF      -0.612800
      6 C3           2.7560     1.3070     1.4430 c3         1 PAF      -0.032000
      7 C4           1.7840     2.4890     1.4140 c3         1 PAF      -0.069600
      8 C5           3.7460     1.4320     0.2830 c3         1 PAF      -0.069600
      9 C6           3.5200     1.3070     2.7690 c3         1 PAF       0.139400
     10 O4           4.2510     2.5280     2.8960 oh         1 PAF      -0.616800
     11 H21          2.6600    -0.8370     1.3250 h1         1 PAF       0.007700
     12 HO31         0.8740    -1.0290     2.5570 ho         1 PAF       0.381000
     13 H41          1.2290     2.4770     0.4840 hc         1 PAF       0.036033
     14 H42          2.3400     3.4160     1.4910 hc         1 PAF       0.036033
     15 H43          1.0960     2.4120     2.2470 hc         1 PAF       0.036033
     16 H51          3.2190     1.7540    -0.6070 hc         1 PAF       0.036033
     17 H52          4.5070     2.1600     0.5360 hc         1 PAF       0.036033
     18 H53          4.2110     0.4710     0.1000 hc         1 PAF       0.036033
     19 H61          4.2070     0.4700     2.7890 h1         1 PAF       0.014200
     20 H62          2.8190     1.2190     3.5900 h1         1 PAF       0.014200
     21 HO41         4.7230     2.5280     3.7120 ho         1 PAF       0.375000
@<TRIPOS>BOND
     1     1     2 1
     2     2     3 1
     3     2     4 1
     4     4     5 1
     5     4     6 1
     6     4    11 1
     7     5    12 1
     8     6     7 1
     9     6     8 1
    10     6     9 1
    11     7    13 1
    12     7    14 1
    13     7    15 1
    14     8    16 1
    15     8    17 1
    16     8    18 1
    17     9    10 1
    18     9    19 1
    19     9    20 1
    20    10    21 1
@<TRIPOS>SUBSTRUCTURE
     1 PAF         1 TEMP              0 ****  ****    0 ROOT
