@<TRIPOS>MOLECULE
PAF
   21    20     1     0     0
SMALL
bcc


@<TRIPOS>ATOM
      1 O1         -0.0830   -0.0180    0.2620 o         1 PAF     -0.835300
      2 C1          1.1580   -0.0870    0.0220 c         1 PAF      0.897600
      3 O2          1.6630   -0.1930   -1.1270 o         1 PAF     -0.835300
      4 C2          2.0980   -0.0640    1.2590 c3        1 PAF      0.020100
      5 O3          1.3800   -0.3840    2.4400 oh        1 PAF     -0.649800
      6 C3          2.8020    1.3010    1.4280 c3        1 PAF     -0.052000
      7 C4          1.7750    2.4190    1.4240 c3        1 PAF     -0.081600
      8 C5          3.7950    1.4980    0.2960 c3        1 PAF     -0.081600
      9 C6          3.5420    1.2830    2.7700 c3        1 PAF      0.132400
     10 O4          4.2350    2.5140    2.9450 oh        1 PAF     -0.610800
     11 H21         2.8800   -0.8650    1.1520 h1        1 PAF      0.041700
     12 HO31        0.4430   -0.2060    2.2550 ho        1 PAF      0.425000
     13 H41         1.0260    2.2450    2.2340 hc        1 PAF      0.035533
     14 H42         2.2730    3.4030    1.5930 hc        1 PAF      0.035533
     15 H43         1.2370    2.4320    0.4450 hc        1 PAF      0.035533
     16 H51         4.6150    0.7440    0.3650 hc        1 PAF      0.035533
     17 H52         4.2450    2.5180    0.3570 hc        1 PAF      0.035533
     18 H53         3.2750    1.3680   -0.6860 hc        1 PAF      0.035533
     19 H61         4.2840    0.4400    2.7850 h1        1 PAF      0.021200
     20 H62         2.8040    1.1370    3.6040 h1        1 PAF      0.021200
     21 HO41        4.5700    2.5010    3.8480 ho        1 PAF      0.374000
@<TRIPOS>BOND
     1    1    2 1   
     2    2    3 1   
     3    2    4 1   
     4    4    5 1   
     5    4    6 1   
     6    4   11 1   
     7    5   12 1   
     8    6    7 1   
     9    6    8 1   
    10    6    9 1   
    11    7   13 1   
    12    7   14 1   
    13    7   15 1   
    14    8   16 1   
    15    8   17 1   
    16    8   18 1   
    17    9   10 1   
    18    9   19 1   
    19    9   20 1   
    20   10   21 1   
@<TRIPOS>SUBSTRUCTURE
     1 PAF         1 TEMP              0 ****  ****    0 ROOT
