@<TRIPOS>MOLECULE
PAG
   15    14     1     0     0
SMALL
bcc


@<TRIPOS>ATOM
      1 C1         -0.1240    0.3220    0.0030 c         1 PAG      0.900600
      2 O1         -0.9260   -0.5760    0.4170 o         1 PAG     -0.913800
      3 O2'        -0.5770    1.4820   -0.2780 o         1 PAG     -0.913800
      4 C2          1.4120    0.0970   -0.0380 c3        1 PAG      0.124100
      5 C3          1.8140   -0.1750    1.4360 c3        1 PAG      0.128400
      6 O2          1.8050   -0.9410   -0.8590 os        1 PAG     -0.572200
      7 O3          3.1610    0.1220    1.7410 oh        1 PAG     -0.736800
      8 P           3.2320   -0.7680   -1.7890 p5        1 PAG      1.336900
      9 O1P         4.1630   -0.0110   -0.8570 o         1 PAG     -0.945833
     10 O2P         3.6420   -2.2020   -2.0230 o         1 PAG     -0.945833
     11 O3P         2.8660   -0.0100   -3.0380 o         1 PAG     -0.945833
     12 H2          1.9100    1.0540   -0.3710 h1        1 PAG      0.019700
     13 H31         1.6200   -1.2540    1.6770 h1        1 PAG     -0.011800
     14 H32         1.1970    0.4660    2.1240 h1        1 PAG     -0.011800
     15 HO3         3.6620    0.0540    0.8900 ho        1 PAG      0.487000
@<TRIPOS>BOND
     1    1    2 1   
     2    1    3 1   
     3    1    4 1   
     4    4    5 1   
     5    4    6 1   
     6    4   12 1   
     7    5    7 1   
     8    5   13 1   
     9    5   14 1   
    10    6    8 1   
    11    7   15 1   
    12    8    9 1   
    13    8   10 1   
    14    8   11 1   
@<TRIPOS>SUBSTRUCTURE
     1 PAG         1 TEMP              0 ****  ****    0 ROOT
