@<TRIPOS>MOLECULE
molecule
   15    14     1     0     0
SMALL
bcc


@<TRIPOS>ATOM
      1 C1           0.0000     0.0000     0.0000 c          1 PAG       0.904600
      2 O1          -0.6030    -0.9060    -0.5240 o          1 PAG      -0.895300
      3 O2'         -0.6710     1.0050     0.5820 o          1 PAG      -0.895300
      4 C2           1.5070     0.0000     0.0000 c3         1 PAG       0.091100
      5 C3           2.0150     0.0000     1.4430 c3         1 PAG       0.134400
      6 O2           1.9840    -1.1650    -0.6720 os         1 PAG      -0.530200
      7 O3           3.4450     0.0000     1.4430 oh         1 PAG      -0.551800
      8 P            2.8650    -0.6550    -1.9190 p5         1 PAG       1.200900
      9 O1P          3.9930     0.1630    -1.4220 o          1 PAG      -0.938833
     10 O2P          3.4380    -1.9240    -2.7270 o          1 PAG      -0.938833
     11 O3P          1.9480     0.2340    -2.8970 o          1 PAG      -0.938833
     12 H2           1.8680     0.8850    -0.5100 h1         1 PAG       0.081700
     13 H31          1.6540    -0.8850     1.9530 h1         1 PAG      -0.016300
     14 H32          1.6540     0.8840     1.9530 h1         1 PAG      -0.016300
     15 HO3          3.7590     0.0250     2.3320 ho         1 PAG       0.308000
@<TRIPOS>BOND
     1     1     2 1
     2     1     3 1
     3     1     4 1
     4     4     5 1
     5     4     6 1
     6     4    12 1
     7     5     7 1
     8     5    13 1
     9     5    14 1
    10     6     8 1
    11     7    15 1
    12     8     9 1
    13     8    10 1
    14     8    11 1
@<TRIPOS>SUBSTRUCTURE
     1 PAG         1 TEMP              0 ****  ****    0 ROOT
