@<TRIPOS>MOLECULE
PAH
   13    12     1     0     0
SMALL
bcc


@<TRIPOS>ATOM
      1 C1           0.0000     0.0000     0.0000 c3         1 PAH      -0.093600
      2 C2           1.5060     0.0000     0.0000 c          1 PAH       0.642100
      3 N3           2.1800     0.0000     1.1650 ns         1 PAH      -0.102400
      4 O3           3.5960     0.0020     1.1660 oh         1 PAH      -0.476100
      5 O2           2.1120     0.0010    -1.0510 o          1 PAH      -0.708100
      6 O1P         -0.1130    -2.4160     1.2070 o          1 PAH      -0.737167
      7 O2P         -2.2160    -1.7200    -0.0010 o          1 PAH      -0.737167
      8 O3P         -0.0700    -2.4770    -1.3150 o          1 PAH      -0.737167
      9 P           -0.6070    -1.7190    -0.0010 p5         1 PAH       0.430700
     10 H11         -0.3610     0.5110    -0.8840 hc         1 PAH       0.007200
     11 H12         -0.3610     0.5100     0.8850 hc         1 PAH       0.007200
     12 HN3          1.6800     0.0130     2.0320 hn         1 PAH       0.160500
     13 HO3          3.9100     0.2940     2.0050 ho         1 PAH       0.344000
@<TRIPOS>BOND
     1     1     2 1   
     2     1     9 1   
     3     1    10 1   
     4     1    11 1   
     5     2     3 1   
     6     2     5 2   
     7     3     4 1   
     8     3    12 1   
     9     4    13 1   
    10     6     9 1   
    11     7     9 1   
    12     8     9 1   
@<TRIPOS>SUBSTRUCTURE
     1 PAH         1 TEMP              0 ****  ****    0 ROOT
