@<TRIPOS>MOLECULE
molecule
   44    43     1     0     0
SMALL
bcc


@<TRIPOS>ATOM
      1 P1           0.0000     0.0000     0.0000 p5         1 PAI       1.175900
      2 O1P          1.4980     0.0000     0.0000 o          1 PAI      -0.919500
      3 O2P         -0.7340     0.0000     1.4350 o          1 PAI      -0.919500
      4 O3P         -0.4530    -1.4320    -0.6670 os         1 PAI      -0.491200
      5 O4P         -0.7570     1.1320    -0.8630 o          1 PAI      -0.919500
      6 C6          -0.0110    -1.6560    -1.9810 c3         1 PAI       0.192400
      7 C5          -0.4790    -3.0100    -2.5180 c3         1 PAI       0.140100
      8 O1           0.0870    -4.0470    -1.7070 oh         1 PAI      -0.564800
      9 C4          -2.0060    -3.2130    -2.5930 c3         1 PAI       0.166100
     10 O4          -2.5550    -2.1400    -3.3670 oh         1 PAI      -0.636800
     11 C3          -2.4570    -4.5400    -3.2310 c3         1 PAI       0.154100
     12 O3          -1.9060    -4.6430    -4.5510 oh         1 PAI      -0.630800
     13 C2          -3.9850    -4.6820    -3.3830 c3         1 PAI       0.154100
     14 O2          -4.4770    -3.5750    -4.1490 oh         1 PAI      -0.561800
     15 C1          -4.7820    -4.7330    -2.0750 c3         1 PAI       0.079800
     16 N1          -4.3610    -5.8300    -1.2090 n3         1 PAI      -0.630600
     17 C7          -4.6140    -7.1080    -1.8810 c3         1 PAI       0.156800
     18 C8          -4.1560    -8.2820    -1.0190 c3         1 PAI       0.325900
     19 O5          -2.7630    -8.1220    -0.7760 oh         1 PAI      -0.601800
     20 O6          -4.4000    -9.4930    -1.7200 oh         1 PAI      -0.601800
     21 C9          -5.0490    -5.7950     0.0840 c3         1 PAI       0.009600
     22 P2          -4.5260    -4.2460     0.8010 p5         1 PAI       0.990700
     23 O5P         -4.8610    -3.0030     0.0320 o          1 PAI      -0.872833
     24 O6P         -2.9500    -4.4620     1.1030 o          1 PAI      -0.872833
     25 O7P         -5.1820    -4.3060     2.2800 o          1 PAI      -0.872833
     26 HC61         1.0720    -1.6250    -1.9980 h1         1 PAI      -0.009300
     27 HC62        -0.3960    -0.8710    -2.6200 h1         1 PAI      -0.009300
     28 HC5         -0.0840    -3.1210    -3.5200 h1         1 PAI      -0.039300
     29 HO1          0.9190    -4.3080    -2.0650 ho         1 PAI       0.336000
     30 HC4         -2.4110    -3.1580    -1.5890 h1         1 PAI       0.164700
     31 HO4         -2.8920    -1.4760    -2.7890 ho         1 PAI       0.433000
     32 HC3         -2.0860    -5.3620    -2.6300 h1         1 PAI       0.078700
     33 HO3         -1.5630    -5.5120    -4.6820 ho         1 PAI       0.346000
     34 HC2         -4.1850    -5.5920    -3.9360 h1         1 PAI      -0.041300
     35 HO2         -5.0280    -3.8940    -4.8440 ho         1 PAI       0.337000
     36 HC11        -5.8330    -4.8560    -2.3100 h1         1 PAI       0.086700
     37 HC12        -4.6480    -3.7970    -1.5460 h1         1 PAI       0.086700
     38 HC71        -5.6750    -7.2040    -2.0750 h1         1 PAI       0.002700
     39 HC72        -4.0770    -7.1280    -2.8210 h1         1 PAI       0.002700
     40 HC8         -4.6960    -8.2830    -0.0800 h2         1 PAI       0.042700
     41 HO5         -2.4170    -8.9130    -0.3950 ho         1 PAI       0.361000
     42 HO6         -4.6850   -10.1560    -1.1130 ho         1 PAI       0.361000
     43 HC91        -6.1230    -5.8060    -0.0560 h1         1 PAI       0.006700
     44 HC92        -4.7360    -6.6260     0.7040 h1         1 PAI       0.006700
@<TRIPOS>BOND
     1     1     2 1
     2     1     3 1
     3     1     4 1
     4     1     5 1
     5     4     6 1
     6     6     7 1
     7     6    26 1
     8     6    27 1
     9     7     8 1
    10     7     9 1
    11     7    28 1
    12     8    29 1
    13     9    10 1
    14     9    11 1
    15     9    30 1
    16    10    31 1
    17    11    12 1
    18    11    13 1
    19    11    32 1
    20    12    33 1
    21    13    14 1
    22    13    15 1
    23    13    34 1
    24    14    35 1
    25    15    16 1
    26    15    36 1
    27    15    37 1
    28    16    17 1
    29    16    21 1
    30    17    18 1
    31    17    38 1
    32    17    39 1
    33    18    19 1
    34    18    20 1
    35    18    40 1
    36    19    41 1
    37    20    42 1
    38    21    22 1
    39    21    43 1
    40    21    44 1
    41    22    23 1
    42    22    24 1
    43    22    25 1
@<TRIPOS>SUBSTRUCTURE
     1 PAI         1 TEMP              0 ****  ****    0 ROOT
