@<TRIPOS>MOLECULE
molecule
   55    57     1     0     0
SMALL
bcc


@<TRIPOS>ATOM
      1 P            0.0000     0.0000     0.0000 p5         1 PAJ       1.294800
      2 O1P          1.4800     0.0000     0.0000 o          1 PAJ      -0.795000
      3 O2P         -0.5370     0.0000     1.5180 o          1 PAJ      -0.795000
      4 O5'         -0.5370     1.3140    -0.7580 os         1 PAJ      -0.537200
      5 C5'         -0.0290     2.4410    -0.0410 c3         1 PAJ       0.159400
      6 C4'         -0.5040     3.7290    -0.7130 c3         1 PAJ       0.124100
      7 O4'         -1.9400     3.7970    -0.6820 os         1 PAJ      -0.389600
      8 C3'          0.0320     4.9510     0.0580 c3         1 PAJ       0.087100
      9 O3'          0.8540     5.7620    -0.7840 oh         1 PAJ      -0.580800
     10 C2'         -1.2470     5.7250     0.4730 c3         1 PAJ       0.088100
     11 O2'         -1.0640     7.1330     0.3200 oh         1 PAJ      -0.568800
     12 C1'         -2.2930     5.1880    -0.5360 c3         1 PAJ       0.251800
     13 N9          -3.6490     5.3230     0.0000 na         1 PAJ      -0.242000
     14 C8          -4.2860     4.4350     0.8130 cc         1 PAJ       0.447700
     15 N7          -5.4790     4.8690     1.0990 nd         1 PAJ      -0.607100
     16 C5          -5.6830     6.0610     0.4890 ca         1 PAJ      -0.209200
     17 C6          -6.7490     6.9740     0.4360 ca         1 PAJ       0.779200
     18 N6          -7.9280     6.7270     1.1170 nv         1 PAJ      -0.992500
     19 N1          -6.6000     8.0810    -0.2840 nb         1 PAJ      -0.846000
     20 C2          -5.4790     8.3250    -0.9370 ca         1 PAJ       0.724900
     21 N3          -4.4540     7.4990    -0.9160 nb         1 PAJ      -0.777000
     22 C4          -4.5090     6.3690    -0.2190 ca         1 PAJ       0.474800
     23 O11          0.4810    -2.6450     0.6810 o          1 PAJ      -0.486000
     24 C11         -0.2120    -2.5330    -0.3010 c          1 PAJ       0.669100
     25 O12         -0.5360    -1.3140    -0.7590 os         1 PAJ      -0.554500
     26 C12         -0.7150    -3.7630    -1.0110 c3         1 PAJ       0.098100
     27 O13         -0.2380    -4.9310    -0.3380 oh         1 PAJ      -0.587800
     28 C13         -0.2050    -3.7640    -2.4530 c3         1 PAJ      -0.049000
     29 C14          1.3240    -3.7650    -2.4530 c3         1 PAJ      -0.080100
     30 C15         -0.7140    -2.5150    -3.1740 c3         1 PAJ      -0.080100
     31 C16         -0.7150    -5.0130    -3.1740 c3         1 PAJ       0.146400
     32 O14         -0.2380    -5.0130    -4.5220 oh         1 PAJ      -0.609800
     33 H5'1         1.0540     2.4110    -0.0420 h1         1 PAJ       0.065200
     34 H5'2        -0.3900     2.4120     0.9800 h1         1 PAJ       0.065200
     35 H4'         -0.1580     3.7640    -1.7390 h1         1 PAJ       0.080700
     36 H3'          0.5790     4.6310     0.9360 h1         1 PAJ       0.058700
     37 H3T          1.7240     5.8090    -0.4240 ho         1 PAJ       0.402000
     38 H2'         -1.5320     5.4740     1.4880 h1         1 PAJ       0.058700
     39 HO'2        -0.9040     7.5230     1.1640 ho         1 PAJ       0.398000
     40 H1'         -2.2010     5.7030    -1.4850 h2         1 PAJ       0.108700
     41 H8          -3.8620     3.5030     1.1690 h5         1 PAJ       0.104800
     42 H61         -8.0300     5.8870     1.6520 hn         1 PAJ       0.445300
     43 H62         -8.6780     7.3870     1.0750 hn         1 PAJ       0.445300
     44 H2          -5.4000     9.2400    -1.5120 h5         1 PAJ       0.053100
     45 H12         -1.7980    -3.7630    -1.0110 h1         1 PAJ       0.044700
     46 H13         -0.8740    -5.2070     0.3010 ho         1 PAJ       0.401000
     47 H141         1.6860    -3.7020    -3.4720 hc         1 PAJ       0.046533
     48 H142         1.6850    -4.6790    -1.9970 hc         1 PAJ       0.046533
     49 H143         1.6860    -2.9140    -1.8880 hc         1 PAJ       0.046533
     50 H151        -0.0180    -1.6990    -3.0180 hc         1 PAJ       0.046533
     51 H152        -0.7990    -2.7190    -4.2340 hc         1 PAJ       0.046533
     52 H153        -1.6850    -2.2410    -2.7800 hc         1 PAJ       0.046533
     53 H161        -0.3540    -5.8970    -2.6630 h1         1 PAJ       0.019700
     54 H162        -1.7980    -5.0120    -3.1750 h1         1 PAJ       0.019700
     55 H14         -0.5370    -5.7910    -4.9610 ho         1 PAJ       0.389000
@<TRIPOS>BOND
     1     1     2 1
     2     1     3 1
     3     1     4 1
     4     1    25 1
     5     4     5 1
     6     5     6 1
     7     5    33 1
     8     5    34 1
     9     6     7 1
    10     6     8 1
    11     6    35 1
    12     7    12 1
    13     8     9 1
    14     8    10 1
    15     8    36 1
    16     9    37 1
    17    10    11 1
    18    10    12 1
    19    10    38 1
    20    11    39 1
    21    12    13 1
    22    12    40 1
    23    13    14 1
    24    13    22 1
    25    14    15 2
    26    14    41 1
    27    15    16 1
    28    16    17 ar
    29    16    22 ar
    30    17    18 1
    31    17    19 ar
    32    18    42 1
    33    18    43 1
    34    19    20 ar
    35    20    21 ar
    36    20    44 1
    37    21    22 ar
    38    23    24 2
    39    24    25 1
    40    24    26 1
    41    26    27 1
    42    26    28 1
    43    26    45 1
    44    27    46 1
    45    28    29 1
    46    28    30 1
    47    28    31 1
    48    29    47 1
    49    29    48 1
    50    29    49 1
    51    30    50 1
    52    30    51 1
    53    30    52 1
    54    31    32 1
    55    31    53 1
    56    31    54 1
    57    32    55 1
@<TRIPOS>SUBSTRUCTURE
     1 PAJ         1 TEMP              0 ****  ****    0 ROOT
