@<TRIPOS>MOLECULE
molecule
   32    35     1     0     0
SMALL
bcc


@<TRIPOS>ATOM
      1 N            0.0000     0.0000     0.0000 ns         1 PAK      -0.461100
      2 C            1.3310     0.0000     0.0000 c          1 PAK       0.716500
      3 O            1.9200     0.0050    -1.0600 o          1 PAK      -0.621500
      4 C1           2.1270     0.0000     1.2810 c3         1 PAK      -0.095200
      5 C2           1.7770     1.2570     2.0370 cc         1 PAK      -0.109400
      6 C3           2.6680     2.3060     2.4820 ca         1 PAK      -0.112800
      7 C4           1.8480     3.2750     3.1220 ca         1 PAK      -0.013200
      8 N1           0.5620     2.8280     3.0600 na         1 PAK      -0.162400
      9 C5           0.5240     1.6020     2.4240 cd         1 PAK      -0.004300
     10 C6          -0.6830     0.7740     2.2190 ca         1 PAK      -0.065800
     11 C7          -0.8620    -0.0120     1.0810 ca         1 PAK       0.079600
     12 C8          -2.0020    -0.8130     0.9870 ca         1 PAK      -0.182000
     13 C9          -2.9550    -0.8010     1.9810 ca         1 PAK      -0.097000
     14 C10         -2.7930     0.0060     3.0940 ca         1 PAK      -0.155000
     15 C11         -1.6650     0.7870     3.2170 ca         1 PAK      -0.102000
     16 C12          2.4020     4.4320     3.6710 ca         1 PAK      -0.151000
     17 C13          3.7600     4.5910     3.5690 ca         1 PAK      -0.068000
     18 C14          4.5780     3.6450     2.9420 ca         1 PAK      -0.057000
     19 C15          5.9890     3.8790     2.8720 cg         1 PAK       0.244800
     20 N2           7.1040     4.0780     2.8030 n1         1 PAK      -0.372800
     21 C16          4.0500     2.4780     2.3830 ca         1 PAK      -0.021000
     22 H1          -0.5670    -0.1480    -0.8110 hn         1 PAK       0.333500
     23 H6           3.0590    -0.5280     1.1180 hc         1 PAK       0.089200
     24 H7           1.5570    -0.5030     2.0520 hc         1 PAK       0.089200
     25 H2          -0.2420     3.2980     3.4270 hn         1 PAK       0.303700
     26 H8          -1.9640    -1.7490     0.4440 ha         1 PAK       0.149000
     27 H9          -3.8350    -1.4270     1.8960 ha         1 PAK       0.138000
     28 H10         -3.5450     0.0130     3.8740 ha         1 PAK       0.139000
     29 H11         -1.9450     1.7220     3.6880 ha         1 PAK       0.137000
     30 H3           1.7640     5.1610     4.1550 ha         1 PAK       0.139000
     31 H4           4.2330     5.4730     3.9820 ha         1 PAK       0.140000
     32 H5           4.6590     1.7090     1.9240 ha         1 PAK       0.153000
@<TRIPOS>BOND
     1     1     2 1
     2     1    11 1
     3     1    22 1
     4     2     3 2
     5     2     4 1
     6     4     5 1
     7     4    23 1
     8     4    24 1
     9     5     6 1
    10     5     9 2
    11     6     7 ar
    12     6    21 ar
    13     7     8 1
    14     7    16 ar
    15     8     9 1
    16     8    25 1
    17     9    10 1
    18    10    11 ar
    19    10    15 ar
    20    11    12 ar
    21    12    13 ar
    22    12    26 1
    23    13    14 ar
    24    13    27 1
    25    14    15 ar
    26    14    28 1
    27    15    29 1
    28    16    17 ar
    29    16    30 1
    30    17    18 ar
    31    17    31 1
    32    18    19 1
    33    18    21 ar
    34    19    20 3
    35    21    32 1
@<TRIPOS>SUBSTRUCTURE
     1 PAK         1 TEMP              0 ****  ****    0 ROOT
