@<TRIPOS>MOLECULE
PAL
   22    21     1     0     0
SMALL
bcc


@<TRIPOS>ATOM
      1 P            0.0000     0.0000     0.0000 p5         1 PAL       0.437700
      2 O1P          1.4790     0.0000     0.0000 o          1 PAL      -0.760500
      3 O2P         -0.5370     0.0000     1.5180 o          1 PAL      -0.760500
      4 O3P         -0.5380    -1.3130    -0.7590 o          1 PAL      -0.760500
      5 C1P         -0.6060     1.4890    -0.8590 c3         1 PAL      -0.110600
      6 C1          -0.1050     1.4890    -2.2800 c          1 PAL       0.650100
      7 O1          -0.7610     0.9640    -3.1540 o          1 PAL      -0.776100
      8 N2           1.0720     2.0710    -2.5780 ns         1 PAL      -0.108900
      9 C2           1.5610     2.0720    -3.9590 c3         1 PAL      -0.072300
     10 C4           2.3960     0.8400    -4.1960 c          1 PAL       0.980600
     11 O2           2.4470     0.3470    -5.2980 o          1 PAL      -0.930800
     12 O3           3.0850     0.2920    -3.1840 o          1 PAL      -0.930800
     13 C3           2.4100     3.3200    -4.2000 c3         1 PAL      -0.126400
     14 C5           1.5740     4.5510    -3.9630 c          1 PAL       0.979600
     15 O4           0.4170     4.4400    -3.6350 o          1 PAL      -0.944300
     16 O5           2.1150     5.7690    -4.1160 o          1 PAL      -0.944300
     17 H1P1        -0.2440     2.3730    -0.3480 hc         1 PAL      -0.010300
     18 H1P2        -1.6890     1.4900    -0.8590 hc         1 PAL      -0.010300
     19 HN2          1.6170     2.4960    -1.8540 hn         1 PAL       0.159500
     20 H2           0.7180     2.0720    -4.6400 h1         1 PAL       0.040700
     21 H31          3.2530     3.3200    -3.5200 hc         1 PAL      -0.000800
     22 H32          2.7700     3.3200    -5.2210 hc         1 PAL      -0.000800
@<TRIPOS>BOND
     1     1     2 1   
     2     1     3 1   
     3     1     4 1   
     4     1     5 1   
     5     5     6 1   
     6     5    17 1   
     7     5    18 1   
     8     6     7 2   
     9     6     8 1   
    10     8     9 1   
    11     8    19 1   
    12     9    10 1   
    13     9    13 1   
    14     9    20 1   
    15    10    11 1   
    16    10    12 1   
    17    13    14 1   
    18    13    21 1   
    19    13    22 1   
    20    14    15 1   
    21    14    16 1   
@<TRIPOS>SUBSTRUCTURE
     1 PAL         1 TEMP              0 ****  ****    0 ROOT
