@<TRIPOS>MOLECULE
molecule
   47    46     1     0     0
SMALL
bcc


@<TRIPOS>ATOM
      1 C1           0.0000     0.0000     0.0000 c          1 PAM       0.890600
      2 O1           1.3430     0.0000     0.0000 o          1 PAM      -0.856800
      3 O2          -0.6020     0.0000     1.0460 o          1 PAM      -0.856800
      4 C2          -0.7540     0.0020    -1.3050 c3         1 PAM      -0.183400
      5 C3          -2.2580     0.0020    -1.0240 c3         1 PAM      -0.063400
      6 C4          -3.0240     0.0040    -2.3490 c3         1 PAM      -0.088400
      7 C5          -4.5270     0.0050    -2.0690 c3         1 PAM      -0.079400
      8 C6          -5.2930     0.0050    -3.3940 c3         1 PAM      -0.088400
      9 C7          -6.7970     0.0060    -3.1140 c3         1 PAM      -0.034400
     10 C8          -7.5620     0.0070    -4.4380 c3         1 PAM      -0.147200
     11 C9          -9.0440     0.0080    -4.1620 c2         1 PAM      -0.341200
     12 C10         -9.8120     0.9140    -4.7140 c2         1 PAM      -0.366200
     13 C11         -9.2460     1.8560    -5.7430 c3         1 PAM      -0.145200
     14 C12        -10.1110     1.8160    -7.0030 c3         1 PAM      -0.035400
     15 C13         -9.5360     2.7730    -8.0490 c3         1 PAM      -0.088400
     16 C14        -10.4030     2.7320    -9.3090 c3         1 PAM      -0.079400
     17 C15         -9.8280     3.6880   -10.3550 c3         1 PAM      -0.084400
     18 C16        -10.6940     3.6490   -11.6150 c3         1 PAM      -0.092100
     19 H21         -0.4930    -0.8830    -1.8740 hc         1 PAM       0.026700
     20 H22         -0.4930     0.8870    -1.8720 hc         1 PAM       0.026700
     21 H31         -2.5190     0.8860    -0.4550 hc         1 PAM       0.046200
     22 H32         -2.5200    -0.8830    -0.4570 hc         1 PAM       0.046200
     23 H41         -2.7630    -0.8800    -2.9180 hc         1 PAM       0.029200
     24 H42         -2.7610     0.8890    -2.9160 hc         1 PAM       0.029200
     25 H51         -4.7880     0.8890    -1.5000 hc         1 PAM       0.042700
     26 H52         -4.7890    -0.8800    -1.5010 hc         1 PAM       0.042700
     27 H61         -5.0320    -0.8790    -3.9620 hc         1 PAM       0.036200
     28 H62         -5.0320     0.8900    -3.9620 hc         1 PAM       0.036200
     29 H71         -7.0580     0.8910    -2.5460 hc         1 PAM       0.057700
     30 H72         -7.0590    -0.8780    -2.5460 hc         1 PAM       0.057700
     31 H81         -7.3010    -0.8780    -5.0060 hc         1 PAM       0.034200
     32 H82         -7.3000     0.8910    -5.0060 hc         1 PAM       0.034200
     33 H9          -8.6370    -0.4640    -5.0480 ha         1 PAM       0.338000
     34 H10         -9.2850     1.8140    -4.4220 ha         1 PAM       0.332000
     35 H111        -8.2340     1.5560    -5.9900 hc         1 PAM       0.034200
     36 H112        -9.2360     2.8640    -5.3440 hc         1 PAM       0.034200
     37 H121       -11.1230     2.1160    -6.7560 hc         1 PAM       0.055200
     38 H122       -10.1210     0.8080    -7.4020 hc         1 PAM       0.055200
     39 H131        -9.5260     3.7800    -7.6490 hc         1 PAM       0.041200
     40 H132        -8.5250     2.4720    -8.2960 hc         1 PAM       0.041200
     41 H141       -11.4140     3.0330    -9.0620 hc         1 PAM       0.042700
     42 H142       -10.4130     1.7250    -9.7070 hc         1 PAM       0.042700
     43 H151        -8.8170     3.3870   -10.6020 hc         1 PAM       0.040700
     44 H152        -9.8160     4.6960    -9.9560 hc         1 PAM       0.040700
     45 H161       -10.7050     2.6420   -12.0140 hc         1 PAM       0.032033
     46 H162       -11.7050     3.9500   -11.3670 hc         1 PAM       0.032033
     47 H163       -10.2860     4.3260   -12.3550 hc         1 PAM       0.032033
@<TRIPOS>BOND
     1     1     2 1
     2     1     3 1
     3     1     4 1
     4     4     5 1
     5     4    19 1
     6     4    20 1
     7     5     6 1
     8     5    21 1
     9     5    22 1
    10     6     7 1
    11     6    23 1
    12     6    24 1
    13     7     8 1
    14     7    25 1
    15     7    26 1
    16     8     9 1
    17     8    27 1
    18     8    28 1
    19     9    10 1
    20     9    29 1
    21     9    30 1
    22    10    11 1
    23    10    31 1
    24    10    32 1
    25    11    12 2
    26    11    33 1
    27    12    13 1
    28    12    34 1
    29    13    14 1
    30    13    35 1
    31    13    36 1
    32    14    15 1
    33    14    37 1
    34    14    38 1
    35    15    16 1
    36    15    39 1
    37    15    40 1
    38    16    17 1
    39    16    41 1
    40    16    42 1
    41    17    18 1
    42    17    43 1
    43    17    44 1
    44    18    45 1
    45    18    46 1
    46    18    47 1
@<TRIPOS>SUBSTRUCTURE
     1 PAM         1 TEMP              0 ****  ****    0 ROOT
