@<TRIPOS>MOLECULE
PAM
   47    46     1     0     0
SMALL
bcc


@<TRIPOS>ATOM
      1 C1          0.0710   -0.5020    0.6070 c         1 PAM      0.907600
      2 O1          1.1240   -1.2010    0.5760 o         1 PAM     -0.853300
      3 O2         -0.4430   -0.0520    1.6720 o         1 PAM     -0.853300
      4 C2         -0.6050   -0.1660   -0.7340 c3        1 PAM     -0.194400
      5 C3         -2.0970   -0.3750   -0.6650 c3        1 PAM     -0.065400
      6 C4         -2.7970    0.1260   -1.9110 c3        1 PAM     -0.078400
      7 C5         -4.2910   -0.1070   -1.8400 c3        1 PAM     -0.078400
      8 C6         -4.9920    0.4030   -3.0810 c3        1 PAM     -0.079400
      9 C7         -6.4850    0.1670   -3.0090 c3        1 PAM     -0.077400
     10 C8         -7.1830    0.6790   -4.2520 c3        1 PAM     -0.052200
     11 C9         -8.6480    0.4600   -4.2100 c2        1 PAM     -0.159200
     12 C10        -9.4860    0.8400   -5.1810 c2        1 PAM     -0.191200
     13 C11        -9.0500    1.5300   -6.4180 c3        1 PAM     -0.046200
     14 C12       -10.2050    1.8170   -7.3540 c3        1 PAM     -0.076400
     15 C13        -9.7320    2.5220   -8.6070 c3        1 PAM     -0.080400
     16 C14       -10.8840    2.8090   -9.5460 c3        1 PAM     -0.078400
     17 C15       -10.4120    3.5140  -10.7990 c3        1 PAM     -0.080400
     18 C16       -11.5550    3.8020  -11.7370 c3        1 PAM     -0.092100
     19 H21        -0.1590   -0.7970   -1.5420 hc        1 PAM      0.018700
     20 H22        -0.3790    0.9050   -0.9710 hc        1 PAM      0.018700
     21 H31        -2.3150   -1.4670   -0.5270 hc        1 PAM      0.044200
     22 H32        -2.4930    0.1570    0.2410 hc        1 PAM      0.044200
     23 H41        -2.5940    1.2220   -2.0400 hc        1 PAM      0.025700
     24 H42        -2.3790   -0.3950   -2.8130 hc        1 PAM      0.025700
     25 H51        -4.4940   -1.2030   -1.7170 hc        1 PAM      0.036700
     26 H52        -4.7060    0.4090   -0.9340 hc        1 PAM      0.036700
     27 H61        -4.7900    1.5000   -3.2020 hc        1 PAM      0.034200
     28 H62        -4.5730   -0.1110   -3.9860 hc        1 PAM      0.034200
     29 H71        -6.6870   -0.9300   -2.8890 hc        1 PAM      0.039700
     30 H72        -6.9030    0.6800   -2.1040 hc        1 PAM      0.039700
     31 H81        -6.9730    1.7780   -4.3740 hc        1 PAM      0.046700
     32 H82        -6.7560    0.1690   -5.1590 hc        1 PAM      0.046700
     33 H9         -9.0330   -0.0490   -3.3110 ha        1 PAM      0.122000
     34 H10       -10.5670    0.6480   -5.0910 ha        1 PAM      0.116000
     35 H111       -8.5370    2.4940   -6.1460 hc        1 PAM      0.047700
     36 H112       -8.2840    0.8980   -6.9480 hc        1 PAM      0.047700
     37 H121      -10.7120    0.8550   -7.6320 hc        1 PAM      0.038700
     38 H122      -10.9660    2.4520   -6.8290 hc        1 PAM      0.038700
     39 H131       -8.9690    1.8860   -9.1310 hc        1 PAM      0.040700
     40 H132       -9.2240    3.4830   -8.3290 hc        1 PAM      0.040700
     41 H141      -11.6460    3.4430   -9.0220 hc        1 PAM      0.037700
     42 H142      -11.3900    1.8470   -9.8250 hc        1 PAM      0.037700
     43 H151       -9.6480    2.8790  -11.3200 hc        1 PAM      0.038700
     44 H152       -9.9040    4.4750  -10.5170 hc        1 PAM      0.038700
     45 H161      -12.3160    4.4540  -11.2430 hc        1 PAM      0.030367
     46 H162      -11.1850    4.3220  -12.6530 hc        1 PAM      0.030367
     47 H163      -12.0580    2.8540  -12.0480 hc        1 PAM      0.030367
@<TRIPOS>BOND
     1    1    2 1   
     2    1    3 1   
     3    1    4 1   
     4    4    5 1   
     5    4   19 1   
     6    4   20 1   
     7    5    6 1   
     8    5   21 1   
     9    5   22 1   
    10    6    7 1   
    11    6   23 1   
    12    6   24 1   
    13    7    8 1   
    14    7   25 1   
    15    7   26 1   
    16    8    9 1   
    17    8   27 1   
    18    8   28 1   
    19    9   10 1   
    20    9   29 1   
    21    9   30 1   
    22   10   11 1   
    23   10   31 1   
    24   10   32 1   
    25   11   12 2   
    26   11   33 1   
    27   12   13 1   
    28   12   34 1   
    29   13   14 1   
    30   13   35 1   
    31   13   36 1   
    32   14   15 1   
    33   14   37 1   
    34   14   38 1   
    35   15   16 1   
    36   15   39 1   
    37   15   40 1   
    38   16   17 1   
    39   16   41 1   
    40   16   42 1   
    41   17   18 1   
    42   17   43 1   
    43   17   44 1   
    44   18   45 1   
    45   18   46 1   
    46   18   47 1   
@<TRIPOS>SUBSTRUCTURE
     1 PAM         1 TEMP              0 ****  ****    0 ROOT
