@<TRIPOS>MOLECULE
molecule
   26    25     1     0     0
SMALL
bcc


@<TRIPOS>ATOM
      1 C2           1.5290     0.0000     0.0000 c3         1 PAN       0.076100
      2 C3           0.0000     0.0000     0.0000 c3         1 PAN       0.159100
      3 C4          -0.5110    -1.2470     0.7230 c3         1 PAN       0.126100
      4 C5          -2.0400    -1.2460     0.7230 c3         1 PAN       0.144400
      5 O2           2.0060     0.0000     1.3460 oh         1 PAN      -0.542800
      6 O3          -0.4750     1.1670     0.6720 oh         1 PAN      -0.573800
      7 O4          -0.0350    -2.4150     0.0490 oh         1 PAN      -0.638800
      8 O5          -2.5170    -2.4130     1.3970 os         1 PAN      -0.541200
      9 P           -4.1250    -2.3480     1.3610 p5         1 PAN       1.154900
     10 O1P         -4.5860    -2.3290    -0.0460 o          1 PAN      -0.910500
     11 O2P         -4.7330    -3.6370     2.1070 o          1 PAN      -0.910500
     12 O3P         -4.6250    -1.0110     2.1060 o          1 PAN      -0.910500
     13 C1           2.0320     1.2290    -0.7130 c          1 PAN       0.639100
     14 O1           2.7300     2.0280    -0.1240 o          1 PAN      -0.582100
     15 N            1.7060     1.4420    -2.0020 ns         1 PAN      -0.479400
     16 ON1          2.1780     2.5970    -2.6710 oh         1 PAN      -0.379100
     17 H2           1.8890    -0.8850    -0.5100 h1         1 PAN       0.057700
     18 H3          -0.3610    -0.0010    -1.0210 h1         1 PAN       0.037700
     19 H4          -0.1490    -1.2470     1.7440 h1         1 PAN       0.056700
     20 H51         -2.4010    -1.2470    -0.2980 h1         1 PAN       0.050700
     21 H52         -2.4000    -0.3620     1.2340 h1         1 PAN       0.050700
     22 HO2          2.8940    -0.3190     1.3650 ho         1 PAN       0.387000
     23 HO3         -1.0080     1.6750     0.0830 ho         1 PAN       0.402000
     24 HO4          0.1290    -3.0970     0.6800 ho         1 PAN       0.413000
     25 HN           1.1620     0.7640    -2.4980 hn         1 PAN       0.326500
     26 HO1          2.1940     2.4380    -3.6000 ho         1 PAN       0.384000
@<TRIPOS>BOND
     1     1     2 1
     2     1     5 1
     3     1    13 1
     4     1    17 1
     5     2     3 1
     6     2     6 1
     7     2    18 1
     8     3     4 1
     9     3     7 1
    10     3    19 1
    11     4     8 1
    12     4    20 1
    13     4    21 1
    14     5    22 1
    15     6    23 1
    16     7    24 1
    17     8     9 1
    18     9    10 1
    19     9    11 1
    20     9    12 1
    21    13    14 2
    22    13    15 1
    23    15    16 1
    24    15    25 1
    25    16    26 1
@<TRIPOS>SUBSTRUCTURE
     1 PAN         1 TEMP              0 ****  ****    0 ROOT
