@<TRIPOS>MOLECULE
PAO
   29    28     1     0     0
SMALL
bcc


@<TRIPOS>ATOM
      1 N            0.0000     0.0000     0.0000 nz         1 PAO       0.045400
      2 CA           1.4690     0.0000     0.0000 c3         1 PAO      -0.196500
      3 CB           1.9790     0.0000     1.4420 c3         1 PAO      -0.019400
      4 CG           1.4700     1.2480     2.1630 c3         1 PAO      -0.062400
      5 CD           1.9800     1.2480     3.6050 c3         1 PAO       0.070000
      6 NE           1.4920     2.4440     4.2960 ns         1 PAO      -0.253900
      7 C            1.9700    -1.2300    -0.7110 c          1 PAO       0.963600
      8 O            3.1430    -1.1970    -1.3630 o          1 PAO      -0.833800
      9 OXT          1.3180    -2.2460    -0.6950 o          1 PAO      -0.833800
     10 C1           1.8190     2.6570     5.5870 c          1 PAO       0.645100
     11 O1           2.5150     1.8590     6.1750 o          1 PAO      -0.719100
     12 C1P          1.3160     3.8870     6.2980 c3         1 PAO      -0.093600
     13 P            2.5160     5.2420     6.0880 p5         1 PAO       0.426700
     14 O1P          1.9810     6.5560     6.8480 o          1 PAO      -0.733500
     15 O2P          3.9350     4.8040     6.7100 o          1 PAO      -0.733500
     16 O3P          2.6800     5.5370     4.6470 o          1 PAO      -0.733500
     17 HN1         -0.3340     0.8350    -0.4390 hn         1 PAO       0.214133
     18 HN2         -0.3340    -0.7980    -0.5040 hn         1 PAO       0.214133
     19 HA           1.8300     0.8840    -0.5110 hx         1 PAO       0.089700
     20 HB1          3.0620     0.0000     1.4410 hc         1 PAO       0.052700
     21 HB2          1.6180    -0.8850     1.9520 hc         1 PAO       0.052700
     22 HG1          1.8310     2.1330     1.6530 hc         1 PAO       0.003200
     23 HG2          0.3870     1.2480     2.1640 hc         1 PAO       0.003200
     24 HD1          1.6190     0.3640     4.1160 h1         1 PAO       0.013700
     25 HD2          3.0630     1.2480     3.6050 h1         1 PAO       0.013700
     26 HNE          0.8990     3.0910     3.8170 hn         1 PAO       0.175500
     27 HP1          1.1950     3.6710     7.3520 hc         1 PAO       0.008700
     28 HP2          0.3620     4.1820     5.8780 hc         1 PAO       0.008700
     29 HN3         -0.3340    -0.0310     0.9430 hn         1 PAO       0.214133
@<TRIPOS>BOND
     1     1     2 1   
     2     1    17 1   
     3     1    18 1   
     4     1    29 1   
     5     2     3 1   
     6     2     7 1   
     7     2    19 1   
     8     3     4 1   
     9     3    20 1   
    10     3    21 1   
    11     4     5 1   
    12     4    22 1   
    13     4    23 1   
    14     5     6 1   
    15     5    24 1   
    16     5    25 1   
    17     6    10 1   
    18     6    26 1   
    19     7     8 1   
    20     7     9 1   
    21    10    11 2   
    22    10    12 1   
    23    12    13 1   
    24    12    27 1   
    25    12    28 1   
    26    13    14 1   
    27    13    15 1   
    28    13    16 1   
@<TRIPOS>SUBSTRUCTURE
     1 PAO         1 TEMP              0 ****  ****    0 ROOT
