@<TRIPOS>MOLECULE
molecule
   29    28     1     0     0
SMALL
bcc


@<TRIPOS>ATOM
      1 N            0.0000     0.0000     0.0000 nz         1 PAO      -0.801600
      2 CA           1.4690     0.0000     0.0000 c3         1 PAO      -0.015500
      3 CB           1.9790     0.0000     1.4420 c3         1 PAO      -0.090400
      4 CG           1.4700     1.2480     2.1630 c3         1 PAO      -0.119400
      5 CD           1.9800     1.2480     3.6050 c3         1 PAO       0.127000
      6 NE           1.4920     2.4440     4.2960 ns         1 PAO      -0.602900
      7 C            1.9700    -1.2300    -0.7110 c          1 PAO       0.873600
      8 O            3.1430    -1.1970    -1.3630 o          1 PAO      -0.792800
      9 OXT          1.3180    -2.2460    -0.6950 o          1 PAO      -0.792800
     10 C1           1.8190     2.6570     5.5870 c          1 PAO       0.707100
     11 O1           2.5150     1.8590     6.1750 o          1 PAO      -0.653100
     12 C1P          1.3160     3.8870     6.2980 c3         1 PAO      -0.287600
     13 P            2.5160     5.2420     6.0880 p5         1 PAO       1.019700
     14 O1P          1.9810     6.5560     6.8480 o          1 PAO      -0.899500
     15 O2P          3.9350     4.8040     6.7100 o          1 PAO      -0.899500
     16 O3P          2.6800     5.5370     4.6470 o          1 PAO      -0.899500
     17 HN1         -0.3340     0.8350    -0.4390 hn         1 PAO       0.436800
     18 HN2         -0.3340    -0.7980    -0.5040 hn         1 PAO       0.436800
     19 HA           1.8300     0.8840    -0.5110 hx         1 PAO       0.106700
     20 HB1          3.0620     0.0000     1.4410 hc         1 PAO       0.084700
     21 HB2          1.6180    -0.8850     1.9520 hc         1 PAO       0.084700
     22 HG1          1.8310     2.1330     1.6530 hc         1 PAO       0.030200
     23 HG2          0.3870     1.2480     2.1640 hc         1 PAO       0.030200
     24 HD1          1.6190     0.3640     4.1160 h1         1 PAO       0.042200
     25 HD2          3.0630     1.2480     3.6050 h1         1 PAO       0.042200
     26 HNE          0.8990     3.0910     3.8170 hn         1 PAO       0.309500
     27 HP1          1.1950     3.6710     7.3520 hc         1 PAO       0.041200
     28 HP2          0.3620     4.1820     5.8780 hc         1 PAO       0.041200
     29 HN3         -0.3340    -0.0310     0.9430 hn         1 PAO       0.436800
@<TRIPOS>BOND
     1     1     2 1
     2     1    17 1
     3     1    18 1
     4     2     3 1
     5     2     7 1
     6     2    19 1
     7     3     4 1
     8     3    20 1
     9     3    21 1
    10     4     5 1
    11     4    22 1
    12     4    23 1
    13     5     6 1
    14     5    24 1
    15     5    25 1
    16     6    10 1
    17     6    26 1
    18     7     8 1
    19     7     9 1
    20    10    11 2
    21    10    12 1
    22    12    13 1
    23    12    27 1
    24    12    28 1
    25    13    14 1
    26    13    15 1
    27    13    16 1
    28    29     1 1
@<TRIPOS>SUBSTRUCTURE
     1 PAO         1 TEMP              0 ****  ****    0 ROOT
