@<TRIPOS>MOLECULE
molecule
   42    44     1     0     0
SMALL
bcc


@<TRIPOS>ATOM
      1 PB           0.0000     0.0000     0.0000 p5         1 PAP       1.215900
      2 O1B          1.4790     0.0000     0.0000 o          1 PAP      -0.861167
      3 O2B         -0.5360     0.0000     1.5180 o          1 PAP      -0.861167
      4 O3B         -0.5370    -1.3140    -0.7600 o          1 PAP      -0.861167
      5 PA           0.0350     1.2510    -2.2620 p5         1 PAP       1.259800
      6 O1A         -0.4590     0.0250    -2.9240 o          1 PAP      -0.797500
      7 O2A          1.6440     1.2300    -2.2240 o          1 PAP      -0.797500
      8 O3A         -0.5360     1.3150    -0.7580 os         1 PAP      -0.668800
      9 O5'         -0.4640     2.5420    -3.0820 os         1 PAP      -0.580200
     10 C5'          0.0730     2.4280    -4.4010 c3         1 PAP       0.160400
     11 C4'         -0.3670     3.6310    -5.2360 c3         1 PAP       0.115100
     12 O4'          0.1350     4.8550    -4.6600 os         1 PAP      -0.411600
     13 C3'          0.2630     3.5690    -6.6450 c3         1 PAP       0.149100
     14 O3'         -0.6640     3.0300    -7.5870 os         1 PAP      -0.515200
     15 P            0.0110     1.7020    -8.1980 p5         1 PAP       1.147900
     16 O1           0.2740     0.7370    -7.1070 o          1 PAP      -0.910500
     17 O2          -0.9860     1.0380    -9.2730 o          1 PAP      -0.910500
     18 O3           1.3970     2.0880    -8.9190 o          1 PAP      -0.910500
     19 C2'          0.5800     5.0470    -6.9800 c3         1 PAP       0.090100
     20 O2'         -0.1410     5.4630    -8.1410 oh         1 PAP      -0.580800
     21 C1'          0.1040     5.8220    -5.7330 c3         1 PAP       0.210800
     22 N9           1.0160     6.9320    -5.4440 na         1 PAP      -0.211000
     23 C8           2.1340     6.8770    -4.6690 cc         1 PAP       0.454700
     24 N7           2.7060     8.0450    -4.6280 nd         1 PAP      -0.663100
     25 C5           1.9940     8.9210    -5.3770 ca         1 PAP      -0.192200
     26 C6           2.1200    10.2860    -5.6870 ca         1 PAP       0.672200
     27 N6           3.1770    11.0300    -5.1920 nv         1 PAP      -1.034500
     28 N1           1.2050    10.8440    -6.4730 nb         1 PAP      -0.847000
     29 C2           0.1940    10.1410    -6.9500 ca         1 PAP       0.624900
     30 N3           0.0320     8.8620    -6.6810 nb         1 PAP      -0.764000
     31 C4           0.8980     8.2190    -5.9040 ca         1 PAP       0.460800
     32 H5'1         1.1540     2.4010    -4.3490 h1         1 PAP       0.100700
     33 H5'2        -0.2900     1.5170    -4.8610 h1         1 PAP       0.100700
     34 H4'         -1.4470     3.6690    -5.3120 h1         1 PAP       0.051700
     35 H3'          1.1750     2.9850    -6.6240 h1         1 PAP       0.111700
     36 H2'          1.6450     5.1800    -7.1210 h1         1 PAP       0.033700
     37 HO2'         0.4630     5.6080    -8.8500 ho         1 PAP       0.384000
     38 H1'         -0.9060     6.1850    -5.8800 h2         1 PAP       0.077700
     39 H8           2.4960     5.9900    -4.1630 h5         1 PAP       0.114800
     40 HN61         3.5190    10.8590    -4.2670 hn         1 PAP       0.413300
     41 HN62         3.5760    11.7620    -5.7460 hn         1 PAP       0.413300
     42 H2          -0.5300    10.6350    -7.5870 h5         1 PAP       0.016100
@<TRIPOS>BOND
     1     1     2 1
     2     1     3 1
     3     1     4 1
     4     1     8 1
     5     5     6 1
     6     5     7 1
     7     5     8 1
     8     5     9 1
     9     9    10 1
    10    10    11 1
    11    10    32 1
    12    10    33 1
    13    11    12 1
    14    11    13 1
    15    11    34 1
    16    12    21 1
    17    13    14 1
    18    13    19 1
    19    13    35 1
    20    14    15 1
    21    15    16 1
    22    15    17 1
    23    15    18 1
    24    19    20 1
    25    19    21 1
    26    19    36 1
    27    20    37 1
    28    21    22 1
    29    21    38 1
    30    22    23 1
    31    22    31 1
    32    23    24 2
    33    23    39 1
    34    24    25 1
    35    25    26 ar
    36    25    31 ar
    37    26    27 1
    38    26    28 ar
    39    27    40 1
    40    27    41 1
    41    28    29 ar
    42    29    30 ar
    43    29    42 1
    44    30    31 ar
@<TRIPOS>SUBSTRUCTURE
     1 PAP         1 TEMP              0 ****  ****    0 ROOT
