@<TRIPOS>MOLECULE
PAV
   20    20     1     0     0
SMALL
bcc


@<TRIPOS>ATOM
      1 O3          1.3200    0.3790   -0.1140 oh        1 PAV     -0.620800
      2 C4         -0.0690    0.1840    0.0470 c3        1 PAV      0.293600
      3 C11        -0.4810    0.0530    1.5000 c3        1 PAV     -0.105100
      4 O5         -0.3320   -1.0430   -0.6300 os        1 PAV     -0.440600
      5 C6         -0.8750   -0.8120   -1.9330 c3        1 PAV      0.101400
      6 C7         -1.2130    0.6770   -2.0810 c3        1 PAV      0.079100
      7 O12        -0.4440    1.2860   -3.1010 oh        1 PAV     -0.589800
      8 C8         -0.7740    1.3390   -0.7410 c3        1 PAV      0.368600
      9 O1         -1.9080    1.8220   -0.0730 oh        1 PAV     -0.598300
     10 O13         0.0300    2.4720   -0.8880 oh        1 PAV     -0.598300
     11 HO3         1.7590   -0.4370    0.1560 ho        1 PAV      0.426000
     12 H111       -0.0380   -0.8700    1.9420 hc        1 PAV      0.059033
     13 H112       -1.5930   -0.0010    1.5690 hc        1 PAV      0.059033
     14 H113       -0.1170    0.9470    2.0600 hc        1 PAV      0.059033
     15 H61        -0.1040   -1.1300   -2.6820 h1        1 PAV      0.059200
     16 H62        -1.7850   -1.4590   -2.0090 h1        1 PAV      0.059200
     17 H7         -2.3090    0.8420   -2.2520 h1        1 PAV      0.078700
     18 H12        -0.8060    0.9820   -3.9420 ho        1 PAV      0.412000
     19 HO1        -1.6710    2.6580    0.3560 ho        1 PAV      0.449000
     20 H13         0.8120    2.2260   -1.4030 ho        1 PAV      0.449000
@<TRIPOS>BOND
     1    1    2 1   
     2    1   11 1   
     3    2    3 1   
     4    2    4 1   
     5    2    8 1   
     6    3   12 1   
     7    3   13 1   
     8    3   14 1   
     9    4    5 1   
    10    5    6 1   
    11    5   15 1   
    12    5   16 1   
    13    6    7 1   
    14    6    8 1   
    15    6   17 1   
    16    7   18 1   
    17    8    9 1   
    18    8   10 1   
    19    9   19 1   
    20   10   20 1   
@<TRIPOS>SUBSTRUCTURE
     1 PAV         1 TEMP              0 ****  ****    0 ROOT
