@<TRIPOS>MOLECULE
molecule
   20    20     1     0     0
SMALL
bcc


@<TRIPOS>ATOM
      1 O3           1.4290     0.0000     0.0000 oh         1 PAV      -0.588800
      2 C4           0.0000     0.0000     0.0000 c3         1 PAV       0.333600
      3 C11         -0.5190     0.0000     1.4390 c3         1 PAV      -0.098100
      4 O5          -0.4880    -1.1590    -0.6960 os         1 PAV      -0.424600
      5 C6          -0.7000    -0.7690    -2.0680 c3         1 PAV       0.110400
      6 C7          -1.3060     0.6530    -1.9490 c3         1 PAV       0.077100
      7 O12         -1.0630     1.4120    -3.1360 oh         1 PAV      -0.574800
      8 C8          -0.5230     1.2400    -0.7470 c3         1 PAV       0.343600
      9 O1          -1.3940     1.9990     0.0940 oh         1 PAV      -0.593800
     10 O13          0.5620     2.0490    -1.2040 oh         1 PAV      -0.593800
     11 HO3          1.7440    -0.8170     0.3510 ho         1 PAV       0.415000
     12 H111        -1.6020    -0.0030     1.4320 hc         1 PAV       0.054700
     13 H112        -0.1630     0.8860     1.9510 hc         1 PAV       0.054700
     14 H113        -0.1590    -0.8830     1.9530 hc         1 PAV       0.054700
     15 H61          0.2410    -0.7370    -2.6040 h1         1 PAV       0.069200
     16 H62         -1.3990    -1.4410    -2.5510 h1         1 PAV       0.069200
     17 H7          -2.3650     0.6000    -1.7270 h1         1 PAV       0.061700
     18 H12         -1.8430     1.4270    -3.6650 ho         1 PAV       0.401000
     19 HO1         -1.5950     2.8210    -0.3210 ho         1 PAV       0.414500
     20 H13          0.5320     2.8880    -0.7740 ho         1 PAV       0.414500
@<TRIPOS>BOND
     1     1     2 1
     2     1    11 1
     3     2     3 1
     4     2     4 1
     5     2     8 1
     6     3    12 1
     7     3    13 1
     8     3    14 1
     9     4     5 1
    10     5     6 1
    11     5    15 1
    12     5    16 1
    13     6     7 1
    14     6     8 1
    15     6    17 1
    16     7    18 1
    17     8     9 1
    18     8    10 1
    19     9    19 1
    20    10    20 1
@<TRIPOS>SUBSTRUCTURE
     1 PAV         1 TEMP              0 ****  ****    0 ROOT
