@<TRIPOS>MOLECULE
PAW
   38    37     1     0     0
SMALL
bcc


@<TRIPOS>ATOM
      1 N1           0.0000     0.0000     0.0000 nz         1 PAW       0.117400
      2 C2           1.4380     0.0000     0.0000 c3         1 PAW      -0.077700
      3 C3           2.0110     0.0000     1.4070 c3         1 PAW       0.151800
      4 C5           3.9930     0.0320     2.7620 c3         1 PAW       0.144300
      5 C6           5.5110    -0.0130     2.7720 c3         1 PAW       0.149300
      6 N4           3.4500     0.0210     1.4030 n7         1 PAW      -0.550700
      7 N7           6.0400    -0.0230     4.1100 n7         1 PAW      -0.566200
      8 C8           7.5030    -0.0760     4.1110 c3         1 PAW       0.149300
      9 C9           8.0700    -0.1250     5.5200 c3         1 PAW       0.144300
     10 N10          9.5080    -0.1570     5.5250 n7         1 PAW      -0.550700
     11 C11         10.0420    -0.1390     6.8880 c3         1 PAW       0.151800
     12 C12         11.5600    -0.2090     6.9040 c3         1 PAW      -0.077700
     13 N13         12.0880    -0.2120     8.2420 nz         1 PAW       0.117400
     14 HN11        -0.3340    -0.8160     0.4740 hn         1 PAW       0.222300
     15 HN12        -0.3340    -0.0030    -0.9440 hn         1 PAW       0.222300
     16 H21          1.7890    -0.8820    -0.5220 hx         1 PAW       0.091700
     17 H22          1.7890     0.8820    -0.5220 hx         1 PAW       0.091700
     18 H31          1.6480     0.8740     1.9350 h1         1 PAW       0.021200
     19 H32          1.6740    -0.8900     1.9250 h1         1 PAW       0.021200
     20 H51          3.6120    -0.8280     3.3000 h1         1 PAW       0.017450
     21 H52          3.6650     0.9340     3.2650 h1         1 PAW       0.017450
     22 H61          5.8400    -0.9080     2.2570 h1         1 PAW       0.016700
     23 H62          5.8930     0.8550     2.2500 h1         1 PAW       0.016700
     24 HN4          3.7700     0.8300     0.9090 hn         1 PAW       0.261800
     25 HN7          5.7360     0.7970     4.5960 hn         1 PAW       0.252800
     26 H81          7.8870     0.8020     3.6070 h1         1 PAW       0.016700
     27 H82          7.8230    -0.9600     3.5720 h1         1 PAW       0.016700
     28 H91          7.6970    -1.0120     6.0180 h1         1 PAW       0.017450
     29 H92          7.7360     0.7510     6.0630 h1         1 PAW       0.017450
     30 HN10         9.8250    -0.9810     5.0540 hn         1 PAW       0.261800
     31 H111         9.6440    -0.9860     7.4330 h1         1 PAW       0.021200
     32 H112         9.7260     0.7750     7.3770 h1         1 PAW       0.021200
     33 H121        11.8750    -1.1140     6.4000 hx         1 PAW       0.091700
     34 H122        11.9570     0.6470     6.3710 hx         1 PAW       0.091700
     35 H131        13.0870    -0.2570     8.2060 hn         1 PAW       0.222300
     36 H132        11.8090     0.6260     8.7130 hn         1 PAW       0.222300
     37 H13         -0.3340     0.8240     0.4600 hn         1 PAW       0.222300
     38 H133        11.7270    -1.0000     8.7420 hn         1 PAW       0.222300
@<TRIPOS>BOND
     1     1     2 1   
     2     1    14 1   
     3     1    15 1   
     4     1    37 1   
     5     2     3 1   
     6     2    16 1   
     7     2    17 1   
     8     3     6 1   
     9     3    18 1   
    10     3    19 1   
    11     4     5 1   
    12     4     6 1   
    13     4    20 1   
    14     4    21 1   
    15     5     7 1   
    16     5    22 1   
    17     5    23 1   
    18     6    24 1   
    19     7     8 1   
    20     7    25 1   
    21     8     9 1   
    22     8    26 1   
    23     8    27 1   
    24     9    10 1   
    25     9    28 1   
    26     9    29 1   
    27    10    11 1   
    28    10    30 1   
    29    11    12 1   
    30    11    31 1   
    31    11    32 1   
    32    12    13 1   
    33    12    33 1   
    34    12    34 1   
    35    13    35 1   
    36    13    36 1   
    37    13    38 1   
@<TRIPOS>SUBSTRUCTURE
     1 PAW         1 TEMP              0 ****  ****    0 ROOT
