@<TRIPOS>MOLECULE
molecule
   34    33     1     0     0
SMALL
bcc


@<TRIPOS>ATOM
      1 O42          0.0000     0.0000     0.0000 o          1 PAY      -0.915300
      2 O41          1.9470     0.0140    -1.0460 o          1 PAY      -0.915300
      3 C4           1.3420     0.0000     0.0000 c          1 PAY       0.898600
      4 C41          2.0960     0.0000     1.3060 c3         1 PAY      -0.176400
      5 C32          3.6000    -0.0010     1.0260 c3         1 PAY      -0.035400
      6 C31          4.3650    -0.0010     2.3510 c3         1 PAY      -0.171700
      7 C3           4.0960    -1.2890     3.0850 c          1 PAY       0.901600
      8 O31          3.3680    -2.1220     2.5980 o          1 PAY      -0.883800
      9 O32          4.6660    -1.5130     4.2790 o          1 PAY      -0.883800
     10 C22          5.8640     0.1250     2.0740 c3         1 PAY      -0.027400
     11 C21          6.6190     0.2500     3.3990 c3         1 PAY      -0.191700
     12 C2           6.2300     1.5360     4.0800 c          1 PAY       0.924600
     13 O21          5.9960     2.5220     3.4210 o          1 PAY      -0.908800
     14 O22          6.1430     1.5870     5.4190 o          1 PAY      -0.908800
     15 C12          8.1250     0.2500     3.1310 c3         1 PAY      -0.036400
     16 C11          8.5390    -1.0990     2.5400 c3         1 PAY      -0.166700
     17 C10          8.2990    -2.2030     3.5740 c3         1 PAY      -0.068100
     18 C1          10.0010    -1.0620     2.1760 c          1 PAY       0.899600
     19 O12         10.5860    -2.1430     1.6380 o          1 PAY      -0.906300
     20 O11         10.6460    -0.0590     2.3690 o          1 PAY      -0.906300
     21 H411         1.8340    -0.8840     1.8740 hc         1 PAY       0.044200
     22 H412         1.8340     0.8850     1.8730 hc         1 PAY       0.044200
     23 H321         3.8620    -0.8850     0.4570 hc         1 PAY       0.018200
     24 H322         3.8620     0.8840     0.4580 hc         1 PAY       0.018200
     25 H31          4.0380     0.8350     2.9570 hc         1 PAY       0.061700
     26 H221         6.2090    -0.7550     1.5440 hc         1 PAY       0.008700
     27 H222         6.0480     1.0050     1.4700 hc         1 PAY       0.008700
     28 H21          6.3670    -0.5880     4.0390 hc         1 PAY       0.122700
     29 H121         8.3670     1.0400     2.4300 hc         1 PAY       0.021700
     30 H122         8.6580     0.4160     4.0590 hc         1 PAY       0.021700
     31 H11          7.9510    -1.3010     1.6530 hc         1 PAY       0.049700
     32 H101         9.1070    -2.9230     3.5270 hc         1 PAY       0.019033
     33 H102         8.2600    -1.7670     4.5650 hc         1 PAY       0.019033
     34 H103         7.3600    -2.7000     3.3600 hc         1 PAY       0.019033
@<TRIPOS>BOND
     1     1     3 1
     2     2     3 1
     3     3     4 1
     4     4     5 1
     5     5     6 1
     6     6     7 1
     7     6    10 1
     8     7     8 1
     9     7     9 1
    10    10    11 1
    11    11    12 1
    12    11    15 1
    13    12    13 1
    14    12    14 1
    15    15    16 1
    16    16    17 1
    17    16    18 1
    18    18    19 1
    19    18    20 1
    20     4    21 1
    21     4    22 1
    22     5    23 1
    23     5    24 1
    24     6    25 1
    25    10    26 1
    26    10    27 1
    27    11    28 1
    28    15    29 1
    29    15    30 1
    30    16    31 1
    31    17    32 1
    32    17    33 1
    33    17    34 1
@<TRIPOS>SUBSTRUCTURE
     1 PAY         1 TEMP              0 ****  ****    0 ROOT
