@<TRIPOS>MOLECULE
PAY
   34    33     1     0     0
SMALL
bcc


@<TRIPOS>ATOM
      1 O42        -0.2210    0.7940    0.8790 o         1 PAY     -0.909300
      2 O41         1.2220    0.4990   -0.7590 o         1 PAY     -0.909300
      3 C4          0.9490    0.4610    0.4810 c         1 PAY      0.899600
      4 C41         1.9550   -0.0060    1.5290 c3        1 PAY     -0.163400
      5 C32         3.4170    0.0660    1.1380 c3        1 PAY     -0.039400
      6 C31         4.3620   -0.4240    2.2400 c3        1 PAY     -0.158700
      7 C3          4.1880   -1.9460    2.4250 c         1 PAY      0.914600
      8 O31         4.5470   -2.7540    1.5120 o         1 PAY     -0.896300
      9 O32         3.6580   -2.3800    3.4990 o         1 PAY     -0.896300
     10 C22         5.8120   -0.0490    1.9130 c3        1 PAY     -0.046400
     11 C21         6.6610    0.4100    3.0950 c3        1 PAY     -0.157700
     12 C2          6.4620    1.9080    3.4250 c         1 PAY      0.914600
     13 O21         6.6240    2.7950    2.5290 o         1 PAY     -0.896800
     14 O22         6.1950    2.2420    4.6250 o         1 PAY     -0.896800
     15 C12         8.1640    0.2310    2.8500 c3        1 PAY     -0.039400
     16 C11         8.7160   -1.1870    2.7970 c3        1 PAY     -0.157700
     17 C10         8.2730   -2.0120    3.9850 c3        1 PAY     -0.063100
     18 C1         10.2560   -1.1850    2.7220 c         1 PAY      0.905600
     19 O12        10.8250   -1.4390    1.6110 o         1 PAY     -0.901800
     20 O11        10.9580   -0.9820    3.7640 o         1 PAY     -0.901800
     21 H411        1.7900    0.6020    2.4570 hc        1 PAY      0.030200
     22 H412        1.7050   -1.0700    1.7860 hc        1 PAY      0.030200
     23 H321        3.6670    1.1280    0.8780 hc        1 PAY      0.026200
     24 H322        3.5800   -0.5520    0.2170 hc        1 PAY      0.026200
     25 H31         4.0710    0.0720    3.2050 hc        1 PAY      0.044700
     26 H221        5.8220    0.7780    1.1540 hc        1 PAY      0.030200
     27 H222        6.3000   -0.9440    1.4420 hc        1 PAY      0.030200
     28 H21         6.3650   -0.1770    4.0050 hc        1 PAY      0.043700
     29 H121        8.4200    0.7440    1.8850 hc        1 PAY      0.026200
     30 H122        8.7070    0.7750    3.6710 hc        1 PAY      0.026200
     31 H11         8.3360   -1.6810    1.8590 hc        1 PAY      0.043700
     32 H101        8.7760   -3.0100    3.9700 hc        1 PAY      0.014033
     33 H102        7.1670   -2.1670    3.9630 hc        1 PAY      0.014033
     34 H103        8.5550   -1.4960    4.9340 hc        1 PAY      0.014033
@<TRIPOS>BOND
     1    1    3 1   
     2    2    3 1   
     3    3    4 1   
     4    4    5 1   
     5    4   21 1   
     6    4   22 1   
     7    5    6 1   
     8    5   23 1   
     9    5   24 1   
    10    6    7 1   
    11    6   10 1   
    12    6   25 1   
    13    7    8 1   
    14    7    9 1   
    15   10   11 1   
    16   10   26 1   
    17   10   27 1   
    18   11   12 1   
    19   11   15 1   
    20   11   28 1   
    21   12   13 1   
    22   12   14 1   
    23   15   16 1   
    24   15   29 1   
    25   15   30 1   
    26   16   17 1   
    27   16   18 1   
    28   16   31 1   
    29   17   32 1   
    30   17   33 1   
    31   17   34 1   
    32   18   19 1   
    33   18   20 1   
@<TRIPOS>SUBSTRUCTURE
     1 PAY         1 TEMP              0 ****  ****    0 ROOT
