@<TRIPOS>MOLECULE
molecule
   34    33     1     0     0
SMALL
bcc


@<TRIPOS>ATOM
      1 O8           0.0000     0.0000     0.0000 o          1 PAZ      -0.917500
      2 P1           1.6100     0.0000     0.0000 p5         1 PAZ       1.193900
      3 O6           2.1040     0.0000     1.3950 o          1 PAZ      -0.917500
      4 O7           2.1460    -1.3140    -0.7590 o          1 PAZ      -0.917500
      5 O2           2.1470     1.3140    -0.7590 os         1 PAZ      -0.591200
      6 C2           1.9290     2.6390    -0.2700 c3         1 PAZ       0.229400
      7 C1           2.5680     3.6470    -1.2280 c3         1 PAZ      -0.065000
      8 C4           4.0710     3.3790    -1.3230 c3         1 PAZ      -0.067600
      9 C3           1.9360     3.5060    -2.6140 c3         1 PAZ      -0.067600
     10 C5           2.3350     5.0670    -0.7040 c3         1 PAZ       0.079100
     11 O5'          0.9370     5.3630    -0.7380 oh         1 PAZ      -0.562800
     12 C6           2.8350     5.1670     0.7140 c          1 PAZ       0.634100
     13 O6'          2.0490     5.3100     1.6260 o          1 PAZ      -0.608100
     14 N            4.1570     5.0970     0.9690 ns         1 PAZ      -0.587900
     15 C8           4.6370     5.0960     2.3530 c3         1 PAZ       0.119000
     16 C9           6.1650     5.0100     2.3630 c3         1 PAZ      -0.199400
     17 C            6.6590     5.0100     3.7860 c          1 PAZ       0.899600
     18 O            5.8700     5.0720     4.7000 o          1 PAZ      -0.865300
     19 OXT          7.9750     4.9400     4.0400 o          1 PAZ      -0.865300
     20 H2           0.8650     2.8280    -0.2030 h1         1 PAZ       0.034700
     21 H2A          2.3770     2.7400     0.7110 h1         1 PAZ       0.034700
     22 H4           4.4420     3.0540    -0.3580 hc         1 PAZ       0.026867
     23 H4A          4.5820     4.2880    -1.6180 hc         1 PAZ       0.026867
     24 H4B          4.2550     2.6060    -2.0590 hc         1 PAZ       0.026867
     25 H3           2.2660     2.5790    -3.0680 hc         1 PAZ       0.026867
     26 H3A          0.8570     3.4970    -2.5200 hc         1 PAZ       0.026867
     27 H3B          2.2370     4.3400    -3.2360 hc         1 PAZ       0.026867
     28 H5           2.8700     5.7740    -1.3260 h1         1 PAZ       0.000700
     29 HO5'         0.8160     6.2940    -0.8230 ho         1 PAZ       0.366000
     30 HN           4.8130     5.1030     0.2130 hn         1 PAZ       0.298500
     31 H8           4.2240     4.2440     2.8780 h1         1 PAZ       0.061700
     32 H8A          4.3240     6.0100     2.8440 h1         1 PAZ       0.061700
     33 H9           6.5780     5.8620     1.8370 hc         1 PAZ       0.028700
     34 H9A          6.4780     4.0960     1.8720 hc         1 PAZ       0.028700
@<TRIPOS>BOND
     1     1     2 1
     2     3     2 1
     3     2     4 1
     4     2     5 1
     5     5     6 1
     6     6     7 1
     7     6    20 1
     8     6    21 1
     9     8     7 1
    10     7    10 1
    11     7     9 1
    12     8    22 1
    13     8    23 1
    14     8    24 1
    15     9    25 1
    16     9    26 1
    17     9    27 1
    18    10    12 1
    19    10    11 1
    20    10    28 1
    21    11    29 1
    22    13    12 2
    23    12    14 1
    24    14    15 1
    25    14    30 1
    26    15    16 1
    27    15    31 1
    28    15    32 1
    29    16    17 1
    30    16    33 1
    31    16    34 1
    32    18    17 1
    33    17    19 1
@<TRIPOS>SUBSTRUCTURE
     1 PAZ         1 TEMP              0 ****  ****    0 ROOT
