@<TRIPOS>MOLECULE
PB1
   34    33     1     0     0
SMALL
bcc


@<TRIPOS>ATOM
      1 O3          0.0340    0.0970   -0.2380 o         1 PB1     -0.864300
      2 C8          1.0950   -0.5960   -0.2790 c         1 PB1      0.905600
      3 O4          1.4200   -1.4110    0.6340 o         1 PB1     -0.864300
      4 C7          1.9950   -0.4690   -1.5170 c3        1 PB1     -0.189400
      5 C6          3.4130   -0.0980   -1.1510 c3        1 PB1     -0.063400
      6 C3          4.3210    0.1560   -2.3500 c3        1 PB1     -0.102700
      7 C2          4.2530   -1.0040   -3.3590 c3        1 PB1      0.153800
      8 N1          4.6700   -2.3070   -2.9010 n3        1 PB1     -0.914800
      9 C4          5.7640    0.4400   -1.9120 c3        1 PB1     -0.037700
     10 C9          6.6890    0.6180   -3.1050 c3        1 PB1     -0.190400
     11 C10         8.0960    1.1060   -2.7290 c         1 PB1      0.904600
     12 O1          8.8740    0.3200   -2.1140 o         1 PB1     -0.863800
     13 O2          8.4410    2.2750   -3.0840 o         1 PB1     -0.863800
     14 C5          5.8710    1.5970   -0.9280 c3        1 PB1     -0.108400
     15 C11         5.3200    2.9470   -1.3870 c3        1 PB1      0.157800
     16 N12         6.1330    3.7410   -2.2790 n3        1 PB1     -0.915800
     17 H71         1.9730   -1.4600   -2.0400 hc        1 PB1      0.018200
     18 H72         1.5650    0.2980   -2.2090 hc        1 PB1      0.018200
     19 H61         3.8460   -0.9060   -0.5040 hc        1 PB1      0.040700
     20 H62         3.3780    0.8350   -0.5280 hc        1 PB1      0.040700
     21 H3          3.9340    1.0620   -2.8970 hc        1 PB1      0.038700
     22 H21         4.8780   -0.7380   -4.2580 h1        1 PB1      0.036700
     23 H22         3.1860   -1.0930   -3.7150 h1        1 PB1      0.036700
     24 HN11        5.6270   -2.2700   -2.6010 hn        1 PB1      0.344800
     25 HN12        4.1110   -2.5810   -2.1130 hn        1 PB1      0.344800
     26 H4          6.1330   -0.4670   -1.3460 hc        1 PB1      0.038700
     27 H91         6.2350    1.3250   -3.8440 hc        1 PB1      0.021200
     28 H92         6.8190   -0.3720   -3.6170 hc        1 PB1      0.021200
     29 H51         5.3280    1.3110    0.0130 hc        1 PB1      0.045700
     30 H52         6.9580    1.7130   -0.6620 hc        1 PB1      0.045700
     31 H111        4.3130    2.7940   -1.8680 h1        1 PB1      0.025700
     32 H112        5.1520    3.5700   -0.4600 h1        1 PB1      0.025700
     33 H121        6.2200    3.2770   -3.1680 hn        1 PB1      0.357300
     34 H122        7.0710    3.8060   -1.9180 hn        1 PB1      0.357300
@<TRIPOS>BOND
     1    1    2 1
     2    2    3 1
     3    2    4 1
     4    4    5 1
     5    4   17 1
     6    4   18 1
     7    5    6 1
     8    5   19 1
     9    5   20 1
    10    6    7 1
    11    6    9 1
    12    6   21 1
    13    7    8 1
    14    7   22 1
    15    7   23 1
    16    8   24 1
    17    8   25 1
    18    9   10 1
    19    9   14 1
    20    9   26 1
    21   10   11 1
    22   10   27 1
    23   10   28 1
    24   11   12 1
    25   11   13 1
    26   14   15 1
    27   14   29 1
    28   14   30 1
    29   15   16 1
    30   15   31 1
    31   15   32 1
    32   16   33 1
    33   16   34 1
@<TRIPOS>SUBSTRUCTURE
     1 PB1         1 TEMP              0 ****  ****    0 ROOT
