@<TRIPOS>MOLECULE
molecule
   32    34     1     0     0
SMALL
bcc


@<TRIPOS>ATOM
      1 CDB          0.0000     0.0000     0.0000 ca         1 PB2      -0.116000
      2 CDC          1.3800     0.0000     0.0000 ca         1 PB2      -0.126000
      3 CDD          2.0740     0.0000     1.1960 ca         1 PB2      -0.123000
      4 CDE          1.3900    -0.0020     2.3990 ca         1 PB2      -0.126000
      5 CDF          0.0100    -0.0020     2.4100 ca         1 PB2      -0.116000
      6 CDA         -0.6950    -0.0010     1.2080 cp         1 PB2      -0.041000
      7 CCD         -2.1780    -0.0020     1.2150 cp         1 PB2      -0.019000
      8 CCE         -2.8730    -0.0030     2.4230 ca         1 PB2      -0.120000
      9 CCF         -4.2530    -0.0030     2.4230 ca         1 PB2      -0.105000
     10 CCC         -2.8830     0.0040     0.0120 ca         1 PB2      -0.120000
     11 CCB         -4.2630     0.0040     0.0240 ca         1 PB2      -0.105000
     12 CCA         -4.9460    -0.0030     1.2260 ca         1 PB2      -0.122300
     13 CAA         -6.4540    -0.0040     1.2330 c3         1 PB2       0.092600
     14 NAB         -6.9430     1.3770     1.2360 na         1 PB2      -0.185900
     15 CAF         -7.2190     2.1440     0.1360 cc         1 PB2      -0.276600
     16 CAE         -7.6410     3.3390     0.5890 cd         1 PB2       0.310200
     17 NAD         -7.6240     3.3040     1.9300 nd         1 PB2      -0.698000
     18 CAC         -7.2120     2.1300     2.3240 cc         1 PB2       0.395400
     19 HDB         -0.5420     0.0000    -0.9380 ha         1 PB2       0.132500
     20 HDC          1.9210     0.0010    -0.9390 ha         1 PB2       0.132000
     21 HDD          3.1570     0.0000     1.1910 ha         1 PB2       0.131000
     22 HDE          1.9390    -0.0020     3.3330 ha         1 PB2       0.132000
     23 HDF         -0.5240    -0.0030     3.3520 ha         1 PB2       0.132500
     24 HCE         -2.3300    -0.0030     3.3610 ha         1 PB2       0.137500
     25 HCF         -4.7940    -0.0060     3.3620 ha         1 PB2       0.131000
     26 HCC         -2.3480     0.0100    -0.9300 ha         1 PB2       0.137500
     27 HCB         -4.8110     0.0070    -0.9100 ha         1 PB2       0.131000
     28 HAA         -6.8110    -0.5150     2.1200 h1         1 PB2       0.067200
     29 HAAA        -6.8190    -0.5150     0.3500 h1         1 PB2       0.067200
     30 HAF         -7.1180     1.8460    -0.9000 h4         1 PB2       0.170000
     31 HAE         -7.9410     4.1820    -0.0220 h4         1 PB2       0.040100
     32 HAC         -7.0980     1.8140     3.3540 h5         1 PB2       0.061100
@<TRIPOS>BOND
     1     1     2 ar
     2     1     6 ar
     3     2     3 ar
     4     3     4 ar
     5     4     5 ar
     6     5     6 ar
     7     6     7 1
     8     7     8 ar
     9     7    10 ar
    10     8     9 ar
    11     9    12 ar
    12    10    11 ar
    13    11    12 ar
    14    12    13 1
    15    13    14 1
    16    14    15 1
    17    14    18 1
    18    15    16 2
    19    16    17 1
    20    17    18 2
    21     1    19 1
    22     2    20 1
    23     3    21 1
    24     4    22 1
    25     5    23 1
    26     8    24 1
    27     9    25 1
    28    10    26 1
    29    11    27 1
    30    13    28 1
    31    13    29 1
    32    15    30 1
    33    16    31 1
    34    18    32 1
@<TRIPOS>SUBSTRUCTURE
     1 PB2         1 TEMP              0 ****  ****    0 ROOT
