@<TRIPOS>MOLECULE
PB2
   32    34     1     0     0
SMALL
bcc


@<TRIPOS>ATOM
      1 CDB         0.0170   -0.2820    0.0270 ca        1 PB2     -0.116500
      2 CDC         1.4080   -0.3340   -0.0190 ca        1 PB2     -0.130000
      3 CDD         2.1560   -0.1280    1.1400 ca        1 PB2     -0.124000
      4 CDE         1.5080    0.1300    2.3480 ca        1 PB2     -0.130000
      5 CDF         0.1160    0.1790    2.3990 ca        1 PB2     -0.116500
      6 CDA        -0.6430   -0.0260    1.2380 cp        1 PB2     -0.044000
      7 CCD        -2.1020    0.0270    1.2890 cp        1 PB2     -0.025000
      8 CCE        -2.7980   -0.5420    2.3650 ca        1 PB2     -0.119000
      9 CCF        -4.1880   -0.4910    2.4140 ca        1 PB2     -0.113500
     10 CCC        -2.8280    0.6500    0.2630 ca        1 PB2     -0.119000
     11 CCB        -4.2190    0.6990    0.3120 ca        1 PB2     -0.113500
     12 CCA        -4.9070    0.1280    1.3860 ca        1 PB2     -0.118300
     13 CAA        -6.4100    0.1290    1.4320 c3        1 PB2      0.088600
     14 NAB        -7.0330    1.3980    1.1980 na        1 PB2     -0.207900
     15 CAF        -7.4350    1.9130   -0.0400 cc        1 PB2     -0.261600
     16 CAE        -7.9370    3.2010    0.2170 cd        1 PB2      0.292200
     17 NAD        -7.8390    3.4910    1.5780 nd        1 PB2     -0.668000
     18 CAC        -7.2860    2.4010    2.1490 cc        1 PB2      0.394400
     19 HDB        -0.5700   -0.4500   -0.8890 ha        1 PB2      0.135000
     20 HDC         1.9170   -0.5390   -0.9720 ha        1 PB2      0.133000
     21 HDD         3.2550   -0.1680    1.1020 ha        1 PB2      0.133000
     22 HDE         2.0950    0.2960    3.2630 ha        1 PB2      0.133000
     23 HDF        -0.3920    0.3890    3.3530 ha        1 PB2      0.135000
     24 HCE        -2.2400   -1.0380    3.1740 ha        1 PB2      0.139500
     25 HCF        -4.7190   -0.9420    3.2660 ha        1 PB2      0.136000
     26 HCC        -2.2940    1.1110   -0.5820 ha        1 PB2      0.139500
     27 HCB        -4.7770    1.1970   -0.4960 ha        1 PB2      0.136000
     28 HAA        -6.7530   -0.2430    2.4420 h1        1 PB2      0.067200
     29 HAAA       -6.7840   -0.5940    0.6470 h1        1 PB2      0.067200
     30 HAF        -7.3500    1.3440   -0.9620 h4        1 PB2      0.174000
     31 HAE        -8.3570    3.9160   -0.4880 h4        1 PB2      0.041100
     32 HAC        -7.0580    2.2770    3.2120 h5        1 PB2      0.060100
@<TRIPOS>BOND
     1    1    2 ar  
     2    1    6 ar  
     3    1   19 1   
     4    2    3 ar  
     5    2   20 1   
     6    3    4 ar  
     7    3   21 1   
     8    4    5 ar  
     9    4   22 1   
    10    5    6 ar  
    11    5   23 1   
    12    6    7 1   
    13    7    8 ar  
    14    7   10 ar  
    15    8    9 ar  
    16    8   24 1   
    17    9   12 ar  
    18    9   25 1   
    19   10   11 ar  
    20   10   26 1   
    21   11   12 ar  
    22   11   27 1   
    23   12   13 1   
    24   13   14 1   
    25   13   28 1   
    26   13   29 1   
    27   14   15 1   
    28   14   18 1   
    29   15   16 2   
    30   15   30 1   
    31   16   17 1   
    32   16   31 1   
    33   17   18 2   
    34   18   32 1   
@<TRIPOS>SUBSTRUCTURE
     1 PB2         1 TEMP              0 ****  ****    0 ROOT
