@<TRIPOS>MOLECULE
PB3
   50    52     1     0     0
SMALL
bcc


@<TRIPOS>ATOM
      1 C1           0.0000     0.0000     0.0000 ca         1 PB3       0.345800
      2 C2           1.3960     0.0000     0.0000 ca         1 PB3      -0.209600
      3 C3           2.0550     0.0000     1.2310 ca         1 PB3       0.345800
      4 N6          -0.6430     0.0000     1.1630 nb         1 PB3      -0.608000
      5 C7           6.9050     2.4970     6.6910 c3         1 PB3       0.064200
      6 C8          -7.1000    -2.4980    -1.7020 c3         1 PB3       0.064200
      7 C9           3.5380    -0.0000     1.2930 c          1 PB3       0.475600
      8 C11          5.6260    -0.0020     2.5490 c3         1 PB3       0.108300
      9 C12          6.0690    -0.0030     3.9890 ca         1 PB3      -0.123800
     10 C15         -0.7540     0.0010    -1.2790 c          1 PB3       0.475600
     11 C21         -5.0030    -1.1930    -2.1150 ca         1 PB3      -0.084500
     12 C24         -6.3580     1.2000    -1.8420 ca         1 PB3      -0.097500
     13 C30          6.2710    -1.2000     4.6490 ca         1 PB3      -0.090000
     14 C31          6.6780    -1.2010     5.9700 ca         1 PB3      -0.097500
     15 C32          6.8830    -0.0040     6.6320 ca         1 PB3      -0.093000
     16 C34          6.2700     1.1940     4.6510 ca         1 PB3      -0.084500
     17 N4           1.3330    -0.0060     2.3460 nb         1 PB3      -0.608000
     18 C5           0.0170    -0.0000     2.3010 ca         1 PB3       0.614900
     19 N10          4.1630    -0.0010     2.4870 ns         1 PB3      -0.167400
     20 N16         -2.1010     0.0020    -1.2670 ns         1 PB3      -0.167400
     21 C17         -2.8450     0.0030    -2.5290 c3         1 PB3       0.108300
     22 C18         -4.3240     0.0030    -2.2400 ca         1 PB3      -0.123800
     23 C4          -6.3590    -1.1930    -1.8450 ca         1 PB3      -0.089300
     24 C23         -7.0380     0.0030    -1.7110 ca         1 PB3      -0.093000
     25 C25         -5.0020     1.2000    -2.1070 ca         1 PB3      -0.090000
     26 C6           6.6810     1.1930     5.9700 ca         1 PB3      -0.089300
     27 O41         -0.1560     0.0020    -2.3370 o          1 PB3      -0.641600
     28 O42          4.1890    -0.0000     0.2680 o          1 PB3      -0.641600
     29 H2           1.9530    -0.0000    -0.9290 ha         1 PB3       0.168000
     30 H71          7.4690     2.3170     7.5980 hc         1 PB3       0.008700
     31 H72          5.9480     2.9400     6.9420 hc         1 PB3       0.008700
     32 H73          7.4580     3.1730     6.0500 hc         1 PB3       0.008700
     33 H81         -6.5550    -3.1510    -1.0300 hc         1 PB3       0.008700
     34 H82         -8.0880    -2.3100    -1.3000 hc         1 PB3       0.008700
     35 H83         -7.1890    -2.9710    -2.6720 hc         1 PB3       0.008700
     36 H111         6.0080    -0.8870     2.0530 h1         1 PB3       0.030200
     37 H112         6.0090     0.8820     2.0540 h1         1 PB3       0.030200
     38 H21         -4.4760    -2.1310    -2.2410 ha         1 PB3       0.111000
     39 H24         -6.8900     2.1390    -1.7380 ha         1 PB3       0.105000
     40 H30          6.1110    -2.1380     4.1310 ha         1 PB3       0.108000
     41 H31          6.8360    -2.1390     6.4880 ha         1 PB3       0.105000
     42 H32          7.2020    -0.0040     7.6670 ha         1 PB3       0.107000
     43 H34          6.1360     2.1320     4.1260 ha         1 PB3       0.111000
     44 H5          -0.5400    -0.0020     3.2310 h5         1 PB3       0.003100
     45 H10          3.6260     0.0080     3.3320 hn         1 PB3       0.194500
     46 H16         -2.5940    -0.0080    -0.3960 hn         1 PB3       0.194500
     47 H171        -2.5890    -0.8810    -3.1000 h1         1 PB3       0.030200
     48 H172        -2.5880     0.8880    -3.0990 h1         1 PB3       0.030200
     49 H23         -8.1010     0.0030    -1.5030 ha         1 PB3       0.107000
     50 H25         -4.4690     2.1380    -2.2080 ha         1 PB3       0.108000
@<TRIPOS>BOND
     1     1     2 ar  
     2     1     4 ar  
     3     1    10 1   
     4     2     3 ar  
     5     2    29 1   
     6     3     7 1   
     7     3    17 ar  
     8     4    18 ar  
     9     5    26 1   
    10     5    30 1   
    11     5    31 1   
    12     5    32 1   
    13     6    23 1   
    14     6    33 1   
    15     6    34 1   
    16     6    35 1   
    17     7    19 1   
    18     7    28 2   
    19     8     9 1   
    20     8    19 1   
    21     8    36 1   
    22     8    37 1   
    23     9    13 ar  
    24     9    16 ar  
    25    10    20 1   
    26    10    27 2   
    27    11    22 ar  
    28    11    23 ar  
    29    11    38 1   
    30    12    24 ar  
    31    12    25 ar  
    32    12    39 1   
    33    13    14 ar  
    34    13    40 1   
    35    14    15 ar  
    36    14    41 1   
    37    15    26 ar  
    38    15    42 1   
    39    16    26 ar  
    40    16    43 1   
    41    17    18 ar  
    42    18    44 1   
    43    19    45 1   
    44    20    21 1   
    45    20    46 1   
    46    21    22 1   
    47    21    47 1   
    48    21    48 1   
    49    22    25 ar  
    50    23    24 ar  
    51    24    49 1   
    52    25    50 1   
@<TRIPOS>SUBSTRUCTURE
     1 PB3         1 TEMP              0 ****  ****    0 ROOT
