@<TRIPOS>MOLECULE
molecule
   50    52     1     0     0
SMALL
bcc


@<TRIPOS>ATOM
      1 C1           0.0000     0.0000     0.0000 ca         1 PB4       0.406800
      2 C2           1.3960     0.0000     0.0000 ca         1 PB4      -0.259600
      3 C3           2.0540     0.0000     1.2320 ca         1 PB4       0.406800
      4 C7           6.8930    -2.5030     6.6950 c3         1 PB4      -0.044800
      5 C8          -7.0970    -2.5020    -1.7040 c3         1 PB4      -0.044800
      6 C9           3.5370     0.0000     1.2950 c          1 PB4       0.568100
      7 C10          5.6250    -0.0010     2.5510 c3         1 PB4       0.162300
      8 C11          6.0660    -0.0010     3.9920 ca         1 PB4      -0.132300
      9 C12         -0.7530     0.0000    -1.2790 c          1 PB4       0.568100
     10 C13         -2.8440     0.0010    -2.5310 c3         1 PB4       0.162300
     11 C14         -4.3240     0.0010    -2.2420 ca         1 PB4      -0.132300
     12 C15         -5.0020    -1.1950    -2.1160 ca         1 PB4      -0.086500
     13 C16         -7.0380     0.0020    -1.7150 ca         1 PB4       0.140900
     14 C19          6.2690     1.1970     4.6520 ca         1 PB4      -0.091500
     15 C20          6.6740     1.2000     5.9720 ca         1 PB4      -0.165500
     16 C21          6.8720     0.0000     6.6370 ca         1 PB4       0.140900
     17 C22          6.2690    -1.1970     4.6520 ca         1 PB4      -0.086500
     18 N1           1.3310    -0.0040     2.3460 nb         1 PB4      -0.725000
     19 C5           0.0150     0.0010     2.3000 ca         1 PB4       0.675900
     20 N2          -0.6440     0.0010     1.1620 nb         1 PB4      -0.725000
     21 N3           4.1610    -0.0010     2.4890 ns         1 PB4      -0.562900
     22 N4          -2.1010     0.0010    -1.2680 ns         1 PB4      -0.562900
     23 C6          -6.3580    -1.1960    -1.8470 ca         1 PB4      -0.121300
     24 C17         -6.3570     1.2000    -1.8470 ca         1 PB4      -0.165500
     25 C18         -5.0010     1.1990    -2.1100 ca         1 PB4      -0.091500
     26 C4           6.6730    -1.1970     5.9740 ca         1 PB4      -0.121300
     27 O1          -0.1540     0.0000    -2.3370 o          1 PB4      -0.593100
     28 O2           4.1890    -0.0010     0.2700 o          1 PB4      -0.593100
     29 F1           7.2680     0.0020     7.9290 f          1 PB4      -0.137400
     30 F2          -8.3640     0.0030    -1.4570 f          1 PB4      -0.137400
     31 H2           1.9380     0.2530    -0.9030 ha         1 PB4       0.195000
     32 H71          6.2970    -2.5200     7.6000 hc         1 PB4       0.049700
     33 H72          6.5990    -3.3240     6.0530 hc         1 PB4       0.049700
     34 H73          7.9410    -2.6020     6.9510 hc         1 PB4       0.049700
     35 H81         -7.7910    -2.6160    -2.5280 hc         1 PB4       0.049700
     36 H82         -7.6430    -2.5080    -0.7690 hc         1 PB4       0.049700
     37 H83         -6.3880    -3.3210    -1.7140 hc         1 PB4       0.049700
     38 H101         6.0070     0.8840     2.0560 h1         1 PB4       0.061700
     39 H102         6.0080    -0.8850     2.0570 h1         1 PB4       0.061700
     40 H131        -2.5870     0.8850    -3.1010 h1         1 PB4       0.061700
     41 H132        -2.5870    -0.8840    -3.1010 h1         1 PB4       0.061700
     42 H15         -4.4760    -2.1320    -2.2520 ha         1 PB4       0.143000
     43 H19          6.1140     2.1350     4.1310 ha         1 PB4       0.142000
     44 H20          6.8320     2.1380     6.4890 ha         1 PB4       0.148000
     45 H22          6.1380    -2.1340     4.1260 ha         1 PB4       0.143000
     46 H5          -0.5420     0.0000     3.2290 h5         1 PB4       0.066100
     47 HN3          3.6250    -0.0060     3.3340 hn         1 PB4       0.338500
     48 HN4         -2.5940    -0.0060    -0.3970 hn         1 PB4       0.338500
     49 H17         -6.8880     2.1390    -1.7430 ha         1 PB4       0.148000
     50 H18         -4.4690     2.1370    -2.2130 ha         1 PB4       0.142000
@<TRIPOS>BOND
     1     1     2 ar
     2     1     9 1
     3     1    20 ar
     4     2     3 ar
     5     2    31 1
     6     3     6 1
     7     3    18 ar
     8     4    26 1
     9     4    32 1
    10     4    33 1
    11     4    34 1
    12     5    23 1
    13     5    35 1
    14     5    36 1
    15     5    37 1
    16     6    21 1
    17     6    28 2
    18     7     8 1
    19     7    21 1
    20     7    38 1
    21     7    39 1
    22     8    14 ar
    23     8    17 ar
    24     9    22 1
    25     9    27 2
    26    10    11 1
    27    10    22 1
    28    10    40 1
    29    10    41 1
    30    11    12 ar
    31    11    25 ar
    32    12    23 ar
    33    12    42 1
    34    13    23 ar
    35    13    24 ar
    36    13    30 1
    37    14    15 ar
    38    14    43 1
    39    15    16 ar
    40    15    44 1
    41    16    26 ar
    42    16    29 1
    43    17    26 ar
    44    17    45 1
    45    18    19 ar
    46    19    20 ar
    47    19    46 1
    48    21    47 1
    49    22    48 1
    50    24    25 ar
    51    24    49 1
    52    25    50 1
@<TRIPOS>SUBSTRUCTURE
     1 PB4         1 TEMP              0 ****  ****    0 ROOT
