@<TRIPOS>MOLECULE
molecule
   42    44     1     0     0
SMALL
bcc


@<TRIPOS>ATOM
      1 C1           0.0000     0.0000     0.0000 ca         1 PB5       0.406800
      2 C2           1.3970     0.0000     0.0000 ca         1 PB5      -0.260600
      3 C3           2.0550     0.0000     1.2320 ca         1 PB5       0.406800
      4 N6          -0.6430     0.0010     1.1630 nb         1 PB5      -0.724000
      5 C9           3.5390    -0.0020     1.2930 c          1 PB5       0.569600
      6 C11          5.6270     0.0100     2.5490 c3         1 PB5       0.164300
      7 C12          6.0690     0.0160     3.9900 ca         1 PB5      -0.246600
      8 C15         -0.7540     0.0010    -1.2790 c          1 PB5       0.569600
      9 C21         -5.0130    -1.1890    -2.1110 ca         1 PB5       0.437200
     10 C24         -6.3730     1.1500    -1.8400 ca         1 PB5      -0.257300
     11 C30          6.2800    -1.1770     4.6640 ca         1 PB5      -0.075000
     12 C31          6.6870    -1.1240     5.9880 ca         1 PB5      -0.257300
     13 C32          6.8680     0.1090     6.5880 ca         1 PB5       0.428700
     14 C34          6.2760     1.2100     4.6530 ca         1 PB5       0.437200
     15 N4           1.3330    -0.0050     2.3470 nb         1 PB5      -0.724000
     16 C5           0.0170     0.0010     2.3020 ca         1 PB5       0.675900
     17 N10          4.1630     0.0040     2.4880 ns         1 PB5      -0.564400
     18 N16         -2.1020     0.0010    -1.2670 ns         1 PB5      -0.564400
     19 C17         -2.8460     0.0010    -2.5290 c3         1 PB5       0.164300
     20 C18         -4.3250     0.0020    -2.2400 ca         1 PB5      -0.246600
     21 N22         -6.3060    -1.1970    -1.8540 nb         1 PB5      -0.689500
     22 C23         -6.9930    -0.0790    -1.7190 ca         1 PB5       0.428700
     23 C25         -5.0130     1.1980    -2.1050 ca         1 PB5      -0.075000
     24 N33          6.6580     1.2220     5.9150 nb         1 PB5      -0.689500
     25 O41         -0.1560     0.0000    -2.3370 o          1 PB5      -0.592600
     26 O42          4.1890    -0.0020     0.2680 o          1 PB5      -0.592600
     27 H2           1.9540    -0.0010    -0.9290 ha         1 PB5       0.197000
     28 H111         6.0120    -0.8750     2.0570 h1         1 PB5       0.062700
     29 H112         6.0060     0.8940     2.0510 h1         1 PB5       0.062700
     30 H21         -4.4820    -2.1280    -2.2150 h4         1 PB5       0.028600
     31 H24         -6.9420     2.0650    -1.7280 ha         1 PB5       0.142000
     32 H30          6.1300    -2.1290     4.1670 ha         1 PB5       0.144000
     33 H31          6.8600    -2.0370     6.5460 ha         1 PB5       0.142000
     34 H32          7.1830     0.1590     7.6230 h4         1 PB5       0.026100
     35 H34          6.1140     2.1460     4.1330 h4         1 PB5       0.028600
     36 H5          -0.5400    -0.0000     3.2310 h5         1 PB5       0.066100
     37 H10          3.6270     0.0260     3.3330 hn         1 PB5       0.338500
     38 H16         -2.5940    -0.0210    -0.3960 hn         1 PB5       0.338500
     39 H171        -2.5900    -0.8830    -3.0990 h1         1 PB5       0.062700
     40 H172        -2.5890     0.8860    -3.0990 h1         1 PB5       0.062700
     41 H23         -8.0550    -0.1250    -1.5100 h4         1 PB5       0.026100
     42 H25         -4.5000     2.1470    -2.2020 ha         1 PB5       0.144000
@<TRIPOS>BOND
     1     1     2 ar
     2     1     4 ar
     3     1     8 1
     4     2     3 ar
     5     2    27 1
     6     3     5 1
     7     3    15 ar
     8     4    16 ar
     9     5    17 1
    10     5    26 2
    11     6     7 1
    12     6    17 1
    13     6    28 1
    14     6    29 1
    15     7    11 ar
    16     7    14 ar
    17     8    18 1
    18     8    25 2
    19     9    20 ar
    20     9    21 ar
    21     9    30 1
    22    10    22 ar
    23    10    23 ar
    24    10    31 1
    25    11    12 ar
    26    11    32 1
    27    12    13 ar
    28    12    33 1
    29    13    24 ar
    30    13    34 1
    31    14    24 ar
    32    14    35 1
    33    15    16 ar
    34    16    36 1
    35    17    37 1
    36    18    19 1
    37    18    38 1
    38    19    20 1
    39    19    39 1
    40    19    40 1
    41    20    23 ar
    42    21    22 ar
    43    22    41 1
    44    23    42 1
@<TRIPOS>SUBSTRUCTURE
     1 PB5         1 TEMP              0 ****  ****    0 ROOT
