@<TRIPOS>MOLECULE
molecule
   34    34     1     0     0
SMALL
bcc


@<TRIPOS>ATOM
      1 C7           0.0000     0.0000     0.0000 c3         1 PB6       0.031300
      2 C8           1.5310     0.0000     0.0000 c3         1 PB6      -0.351100
      3 P9           2.1370     0.0000     1.7190 p5         1 PB6       1.063200
      4 O10          1.6000     1.3140     2.4780 o          1 PB6      -0.859667
      5 O11          1.6440    -1.2090     2.4160 o          1 PB6      -0.859667
      6 N12         -0.4900     1.2620     0.5590 na         1 PB6       0.086900
      7 O12          3.7470     0.0010     1.7190 o          1 PB6      -0.859667
      8 C13         -0.5530     2.3250    -0.2190 ca         1 PB6      -0.023300
      9 C14         -1.0090     3.5380     0.2670 ca         1 PB6      -0.267000
     10 P14          2.1380    -1.4870    -0.8590 p5         1 PB6       1.063200
     11 C15         -1.4030     3.6340     1.5900 ca         1 PB6      -0.086000
     12 O15          1.6100    -1.4820    -2.3810 o          1 PB6      -0.859667
     13 C16         -1.3220     2.4890     2.3900 ca         1 PB6      -0.121800
     14 O16          3.7490    -1.4910    -0.8520 o          1 PB6      -0.859667
     15 C17         -0.8570     1.3020     1.8240 ca         1 PB6       0.001700
     16 O17          1.6390    -2.6970    -0.1680 o          1 PB6      -0.859667
     17 C18         -1.7290     2.5340     3.8100 ce         1 PB6      -0.014200
     18 C19         -2.1740     3.6680     4.3360 c2         1 PB6      -0.277200
     19 C20         -2.5890     3.7130     5.7840 c3         1 PB6      -0.029200
     20 C21         -1.8160     4.8230     6.5010 c3         1 PB6      -0.087100
     21 H7          -0.3610    -0.1090    -1.0160 h1         1 PB6       0.075200
     22 H7A         -0.3610    -0.8250     0.6020 h1         1 PB6       0.075200
     23 H8           1.8920     0.8850    -0.5100 hc         1 PB6       0.044700
     24 H13         -0.2450     2.2480    -1.2540 h4         1 PB6       0.171000
     25 H14         -1.0570     4.4040    -0.3830 ha         1 PB6       0.108000
     26 H15         -1.7610     4.5720     1.9970 ha         1 PB6       0.103000
     27 H17         -0.7900     0.4070     2.4310 h4         1 PB6       0.215000
     28 H18         -1.6630     1.6430     4.4220 ha         1 PB6       0.135000
     29 H19         -2.2400     4.5590     3.7240 ha         1 PB6       0.114000
     30 H20         -2.3720     2.7610     6.2520 hc         1 PB6       0.026200
     31 H20A        -3.6520     3.9140     5.8490 hc         1 PB6       0.026200
     32 H21         -2.0220     4.7780     7.5630 hc         1 PB6       0.024033
     33 H21A        -0.7540     4.6890     6.3330 hc         1 PB6       0.024033
     34 H21B        -2.1230     5.7860     6.1130 hc         1 PB6       0.024033
@<TRIPOS>BOND
     1     1     2 1
     2     1     6 1
     3     1    21 1
     4     1    22 1
     5     2     3 1
     6     2    10 1
     7     2    23 1
     8     3     4 1
     9     3     5 1
    10     3     7 1
    11     6     8 1
    12     6    15 2
    13     8     9 ar
    14     8    24 1
    15     9    11 ar
    16     9    25 1
    17    10    12 1
    18    10    14 1
    19    10    16 1
    20    11    13 ar
    21    11    26 1
    22    13    15 ar
    23    13    17 1
    24    15    27 1
    25    17    18 2
    26    17    28 1
    27    18    19 1
    28    18    29 1
    29    19    20 1
    30    19    30 1
    31    19    31 1
    32    20    32 1
    33    20    33 1
    34    20    34 1
@<TRIPOS>SUBSTRUCTURE
     1 PB6         1 TEMP              0 ****  ****    0 ROOT
