@<TRIPOS>MOLECULE
molecule
   97   100     1     0     0
SMALL
bcc


@<TRIPOS>ATOM
      1 C1           0.0000     0.0000     0.0000 ca         1 PB7      -0.131000
      2 C2           5.7350     2.5440     9.9360 ca         1 PB7      -0.117000
      3 C3           1.3820     0.0000     0.0000 ca         1 PB7      -0.126000
      4 C4          -0.6920    -0.0010     1.1970 ca         1 PB7      -0.126000
      5 C5           6.0710     1.8820     8.7700 ca         1 PB7      -0.118000
      6 C6           5.5600     3.9160     9.9250 ca         1 PB7      -0.118000
      7 C7           4.5820    11.7900     1.3260 ca         1 PB7      -0.091000
      8 C8           2.0730     0.0000     1.1970 ca         1 PB7      -0.124000
      9 C9          -0.0000    -0.0020     2.3940 ca         1 PB7      -0.124000
     10 C10          6.2350     2.5900     7.5940 ca         1 PB7      -0.118000
     11 C11          5.7230     4.6240     8.7500 ca         1 PB7      -0.118000
     12 C12          4.5690    10.9730     2.4400 ca         1 PB7      -0.165000
     13 C13          5.7530    11.9790     0.6180 ca         1 PB7      -0.220000
     14 C14          6.9030    10.5270     2.1470 ca         1 PB7      -0.135000
     15 C15          1.3810    -0.0010     2.3940 ca         1 PB7      -0.082300
     16 C16          6.0610     3.9610     7.5840 ca         1 PB7      -0.076300
     17 C17          5.7290    10.3410     2.8500 ca         1 PB7      -0.052300
     18 C18          6.9180    11.3470     1.0280 ca         1 PB7       0.139100
     19 C19          1.1060     1.3220     6.8650 c          1 PB7       0.721500
     20 C21          3.5160     2.8520     5.8420 c          1 PB7       0.645100
     21 C22          1.3700    -0.8190     7.9500 c3         1 PB7      -0.106400
     22 C23          2.6870    -0.3190     7.3180 c3         1 PB7       0.100000
     23 C24          0.5200     0.4730     7.9720 c3         1 PB7       0.049400
     24 C25          2.0170     2.1850    11.0500 c3         1 PB7      -0.161100
     25 C26         -3.1910     1.1460     7.2050 c3         1 PB7      -0.090100
     26 C29          2.1360    -0.0030     3.6990 c3         1 PB7      -0.033100
     27 C30          6.2410     4.7340     6.3030 c3         1 PB7      -0.046100
     28 C31          5.7120     9.4520     4.0660 c3         1 PB7       0.206100
     29 C33          2.3910     1.4390     4.1420 c3         1 PB7      -0.097400
     30 C34          5.3740     7.1760     4.8230 c3         1 PB7       0.134800
     31 C35          3.1570     1.4370     5.4670 c3         1 PB7       0.071700
     32 C36         -0.9480     0.1530     7.6820 c3         1 PB7      -0.064700
     33 C37          4.8950     4.8440     5.5810 c3         1 PB7       0.117700
     34 C38          5.0450     5.7550     4.3610 c3         1 PB7       0.133100
     35 N39          2.3160     0.8530     6.5150 n          1 PB7      -0.456800
     36 N41          4.4640     3.5130     5.1470 ns         1 PB7      -0.587900
     37 O43          0.5610     2.2820     6.3650 o          1 PB7      -0.621500
     38 O45          2.9530     3.3970     6.7680 o          1 PB7      -0.558100
     39 O46          6.1000     5.2670     3.5290 oh         1 PB7      -0.599800
     40 O47          8.0720    11.5300     0.3340 os         1 PB7      -0.327900
     41 H1          -0.5420     0.0010    -0.9380 ha         1 PB7       0.128000
     42 H2           5.6070     1.9890    10.8570 ha         1 PB7       0.119000
     43 H3           1.9240     0.0010    -0.9380 ha         1 PB7       0.128500
     44 H4          -1.7750    -0.0010     1.1970 ha         1 PB7       0.128500
     45 H5           6.2080     0.8070     8.7780 ha         1 PB7       0.120500
     46 H6           5.2960     4.4350    10.8380 ha         1 PB7       0.120500
     47 H8           3.1560     0.0010     1.1970 ha         1 PB7       0.130000
     48 H9          -0.5420    -0.0030     3.3320 ha         1 PB7       0.130000
     49 H10          6.4990     2.0710     6.6810 ha         1 PB7       0.121500
     50 H11          5.5870     5.6990     8.7420 ha         1 PB7       0.121500
     51 H12          3.6490    10.8260     2.9930 ha         1 PB7       0.128000
     52 H13          5.7610    12.6200    -0.2550 ha         1 PB7       0.134000
     53 H14          7.8120    10.0320     2.4690 ha         1 PB7       0.150000
     54 H22          0.9060    -1.5740     7.3270 hc         1 PB7       0.060700
     55 H22A         1.5400    -1.1860     8.9550 hc         1 PB7       0.060700
     56 H23          3.1120    -1.0870     6.6830 h1         1 PB7       0.060200
     57 H23A         3.3890    -0.0340     8.0930 h1         1 PB7       0.060200
     58 H25          2.2180     3.2460    10.9690 hc         1 PB7       0.057700
     59 H25A         2.8280     1.7030    11.5820 hc         1 PB7       0.057700
     60 H25B         1.0910     2.0330    11.5900 hc         1 PB7       0.057700
     61 H26         -3.6580     2.0510     6.8370 hc         1 PB7       0.030700
     62 H26A        -3.7510     0.7670     8.0510 hc         1 PB7       0.030700
     63 H26B        -3.1780     0.4010     6.4180 hc         1 PB7       0.030700
     64 H28          8.9920    12.4460    -1.2670 h1         1 PB7       0.041033
     65 H28A         7.3030    11.9880    -1.5230 h1         1 PB7       0.041033
     66 H28B         7.6970    13.3770    -0.5010 h1         1 PB7       0.041033
     67 H29          1.5510    -0.5140     4.4540 hc         1 PB7       0.048200
     68 H29A         3.0820    -0.5130     3.5690 hc         1 PB7       0.048200
     69 H30          6.6110     5.7270     6.5290 hc         1 PB7       0.059200
     70 H30A         6.9510     4.2200     5.6670 hc         1 PB7       0.059200
     71 H31          4.9590     9.8040     4.7610 h1         1 PB7       0.040700
     72 H31A         6.6840     9.4750     4.5450 h1         1 PB7       0.040700
     73 H33          1.4450     1.9500     4.2730 hc         1 PB7       0.068700
     74 H33A         2.9770     1.9500     3.3880 hc         1 PB7       0.068700
     75 H34          4.6180     7.5120     5.5230 h1         1 PB7       0.045700
     76 H34A         6.3430     7.1830     5.3060 h1         1 PB7       0.045700
     77 H35          4.0620     0.8510     5.3610 h1         1 PB7       0.068700
     78 H36         -1.0240    -0.3660     6.7340 hc         1 PB7       0.063700
     79 H37          4.1560     5.2610     6.2550 h1         1 PB7       0.098700
     80 H38          4.1180     5.7630     3.8010 h1         1 PB7       0.039700
     81 HN41         4.8440     3.1120     4.3120 hn         1 PB7       0.313500
     82 HO46         5.8270     5.2950     2.6270 ho         1 PB7       0.407000
     83 N40          0.6530     1.1510     9.2640 ns         1 PB7      -0.567900
     84 C27         -1.5060    -0.7360     8.7960 c3         1 PB7      -0.094100
     85 C20          1.8590     1.5920     9.6730 c          1 PB7       0.651100
     86 C32         -1.7500     1.4540     7.6160 c3         1 PB7      -0.100400
     87 N42          5.3990     8.0740     3.6610 n7         1 PB7      -0.812200
     88 O44          2.8170     1.5120     8.9340 o          1 PB7      -0.588100
     89 H7           3.6720    12.2840     1.0070 ha         1 PB7       0.129000
     90 C28          8.0120    12.3870    -0.8080 c3         1 PB7       0.129700
     91 H27         -0.7300    -1.4050     9.1460 hc         1 PB7       0.036367
     92 H27A        -2.3380    -1.3150     8.4130 hc         1 PB7       0.036367
     93 H27B        -1.8460    -0.1150     9.6160 hc         1 PB7       0.036367
     94 H32         -1.7470     1.9370     8.5860 hc         1 PB7       0.067700
     95 H32A        -1.2990     2.1130     6.8840 hc         1 PB7       0.067700
     96 HN40        -0.1510     1.2830     9.8450 hn         1 PB7       0.321500
     97 HN42         4.5080     8.0550     3.2050 hn         1 PB7       0.351800
@<TRIPOS>BOND
     1     1     3 ar
     2     1     4 ar
     3     2     5 ar
     4     2     6 ar
     5     3     8 ar
     6     4     9 ar
     7     5    10 ar
     8     6    11 ar
     9     7    12 ar
    10     7    13 ar
    11     8    15 ar
    12     9    15 ar
    13    10    16 ar
    14    11    16 ar
    15    12    17 ar
    16    13    18 ar
    17    14    17 ar
    18    14    18 ar
    19    15    26 1
    20    16    27 1
    21    17    28 1
    22    18    40 1
    23    19    23 1
    24    19    35 1
    25    19    37 2
    26    85    24 1
    27    85    83 1
    28    85    88 2
    29    20    31 1
    30    20    36 1
    31    20    38 2
    32    21    22 1
    33    21    23 1
    34    22    35 1
    35    23    32 1
    36    23    83 1
    37    25    86 1
    38    84    32 1
    39    90    40 1
    40    26    29 1
    41    27    33 1
    42    28    87 1
    43    86    32 1
    44    29    31 1
    45    30    34 1
    46    30    87 1
    47    31    35 1
    48    33    34 1
    49    33    36 1
    50    34    39 1
    51     1    41 1
    52     2    42 1
    53     3    43 1
    54     4    44 1
    55     5    45 1
    56     6    46 1
    57     7    89 1
    58     8    47 1
    59     9    48 1
    60    10    49 1
    61    11    50 1
    62    12    51 1
    63    13    52 1
    64    14    53 1
    65    21    54 1
    66    21    55 1
    67    22    56 1
    68    22    57 1
    69    24    58 1
    70    24    59 1
    71    24    60 1
    72    25    61 1
    73    25    62 1
    74    25    63 1
    75    84    91 1
    76    84    92 1
    77    84    93 1
    78    90    64 1
    79    90    65 1
    80    90    66 1
    81    26    67 1
    82    26    68 1
    83    27    69 1
    84    27    70 1
    85    28    71 1
    86    28    72 1
    87    86    94 1
    88    86    95 1
    89    29    73 1
    90    29    74 1
    91    30    75 1
    92    30    76 1
    93    31    77 1
    94    32    78 1
    95    33    79 1
    96    34    80 1
    97    83    96 1
    98    36    81 1
    99    87    97 1
   100    39    82 1
@<TRIPOS>SUBSTRUCTURE
     1 PB7         1 TEMP              0 ****  ****    0 ROOT
