@<TRIPOS>MOLECULE
molecule
   73    77     1     0     0
SMALL
bcc


@<TRIPOS>ATOM
      1 C1           0.0000     0.0000     0.0000 ca         1 PB9      -0.064000
      2 C2           1.3740     0.0000     0.0000 ca         1 PB9      -0.182000
      3 C3           2.0860     0.0000     1.2040 ca         1 PB9       0.137600
      4 C4           1.3980     0.0080     2.4080 ca         1 PB9      -0.129300
      5 C5           0.0160     0.0060     2.4140 ca         1 PB9      -0.058000
      6 C6          -0.6950     0.0070     1.2130 ca         1 PB9      -0.050000
      7 N10          3.4730    -0.0180     1.1280 nh         1 PB9      -0.599000
      8 C11          4.1240     0.4490     2.3540 c3         1 PB9       0.150800
      9 C12          3.5790    -0.3590     3.5390 c3         1 PB9       0.231500
     10 C13          2.1110     0.0290     3.7360 c3         1 PB9      -0.049100
     11 C18         -2.1260     0.0050     1.2230 cg         1 PB9       0.242800
     12 N19         -3.2630    -0.0140     1.2430 n1         1 PB9      -0.366800
     13 N20          4.3430    -0.0420     4.7480 n3         1 PB9      -0.807500
     14 S22          5.1630    -1.2400     5.5450 sy         1 PB9       1.358800
     15 C23          6.8240    -1.2150     4.9570 ca         1 PB9       0.189200
     16 O24          5.2150    -0.8480     6.9100 o          1 PB9      -0.621800
     17 O25          4.6010    -2.4700     5.1100 o          1 PB9      -0.621800
     18 N26          7.6970    -0.3920     5.5040 nb         1 PB9      -0.601000
     19 C27          8.9500    -0.3390     5.0960 ca         1 PB9       0.402200
     20 C28          9.3940    -1.1530     4.0710 ca         1 PB9      -0.198300
     21 C29          8.5050    -2.0320     3.4710 ca         1 PB9      -0.113000
     22 C30          7.1970    -2.0630     3.9310 ca         1 PB9      -0.164300
     23 C35          4.3800     1.3330     5.2510 c3         1 PB9       0.238800
     24 C36          3.6360     1.4080     6.5850 c3         1 PB9      -0.115700
     25 C39          3.7000     2.8390     7.1250 c3         1 PB9      -0.097400
     26 C40          2.9830     2.9030     8.4780 c3         1 PB9       0.116500
     27 N41          1.6200     2.3800     8.3160 n          1 PB9      -0.478800
     28 C42          1.4400     1.0480     7.7220 c3         1 PB9       0.116500
     29 C43          2.1740     1.0040     6.3770 c3         1 PB9      -0.097400
     30 C53          0.5550     3.1070     8.7050 c          1 PB9       0.752100
     31 O54         -0.6890     2.6140     8.5500 os         1 PB9      -0.443900
     32 O55          0.7160     4.2070     9.1950 o          1 PB9      -0.615000
     33 C56         -1.7900     3.4530     8.9930 c3         1 PB9       0.157700
     34 C60          3.9470     0.7370    -0.0390 c3         1 PB9       0.250100
     35 C61          5.4360     0.9470     0.0680 cc         1 PB9      -0.253900
     36 C64          6.0590     2.0480     0.5300 cd         1 PB9       0.322200
     37 N65          7.3820     1.8350     0.4600 nd         1 PB9      -0.695000
     38 C66          7.6010     0.6450    -0.0270 cc         1 PB9       0.399400
     39 N67          6.4130     0.0550    -0.2800 na         1 PB9      -0.176900
     40 C68          6.2090    -1.2890    -0.8270 c3         1 PB9       0.029600
     41 H1          -0.5430     0.0010    -0.9370 ha         1 PB9       0.143000
     42 H2           1.9100    -0.0060    -0.9410 ha         1 PB9       0.140000
     43 H5          -0.5180     0.0110     3.3560 ha         1 PB9       0.146000
     44 H111         5.1940     0.3010     2.2760 h1         1 PB9       0.058200
     45 H112         3.9060     1.5000     2.5020 h1         1 PB9       0.058200
     46 H12          3.6500    -1.4180     3.3210 h1         1 PB9       0.102700
     47 H131         1.6450    -0.6960     4.3930 hc         1 PB9       0.072200
     48 H132         2.0670     1.0330     4.1400 hc         1 PB9       0.072200
     49 H27          9.6380     0.3500     5.5690 h4         1 PB9       0.034100
     50 H28         10.4240    -1.1030     3.7390 ha         1 PB9       0.143000
     51 H29          8.8260    -2.6830     2.6670 ha         1 PB9       0.142000
     52 H30          6.4750    -2.7380     3.4870 ha         1 PB9       0.159000
     53 H351         5.4100     1.6370     5.3940 h1         1 PB9       0.057200
     54 H352         3.9050     1.9930     4.5350 h1         1 PB9       0.057200
     55 H36          4.0960     0.7350     7.2990 hc         1 PB9       0.108700
     56 H391         4.7360     3.1300     7.2520 hc         1 PB9       0.051200
     57 H392         3.2130     3.5090     6.4270 hc         1 PB9       0.051200
     58 H401         3.5190     2.3000     9.2000 h1         1 PB9       0.064450
     59 H402         2.9380     3.9310     8.8160 h1         1 PB9       0.064450
     60 H421         0.3850     0.8610     7.5640 h1         1 PB9       0.064450
     61 H422         1.8530     0.2970     8.3840 h1         1 PB9       0.064450
     62 H431         1.7040     1.6950     5.6870 hc         1 PB9       0.051200
     63 H432         2.1310    -0.0010     5.9760 hc         1 PB9       0.051200
     64 H561        -2.7280     2.9440     8.8100 h1         1 PB9       0.049033
     65 H562        -1.6880     3.6530    10.0520 h1         1 PB9       0.049033
     66 H563        -1.7730     4.3880     8.4450 h1         1 PB9       0.049033
     67 H601         3.4480     1.6980    -0.0740 h1         1 PB9       0.059200
     68 H602         3.7240     0.1820    -0.9420 h1         1 PB9       0.059200
     69 H64          5.5770     2.9470     0.8940 h4         1 PB9       0.043100
     70 H66          8.5750     0.2010    -0.1950 h5         1 PB9       0.066100
     71 H681         5.5970    -1.2260    -1.7190 h1         1 PB9       0.057700
     72 H682         5.7110    -1.9070    -0.0900 h1         1 PB9       0.057700
     73 H683         7.1680    -1.7270    -1.0770 h1         1 PB9       0.057700
@<TRIPOS>BOND
     1    33    31 1
     2    31    30 1
     3    30    32 2
     4    30    27 1
     5    28    27 1
     6    28    29 1
     7    27    26 1
     8    29    24 1
     9    26    25 1
    10    24    23 1
    11    24    25 1
    12    23    13 1
    13    16    14 2
    14    13    14 1
    15    13     9 1
    16    22    21 ar
    17    22    15 ar
    18    14    15 1
    19    14    17 2
    20    21    20 ar
    21     9     8 1
    22     9    10 1
    23    15    18 ar
    24     8     7 1
    25    10     4 1
    26    20    19 ar
    27    18    19 ar
    28     7    34 1
    29     7     3 1
    30     4     3 ar
    31     4     5 ar
    32    34    35 1
    33     3     2 ar
    34     5     6 ar
    35    40    39 1
    36    35    39 1
    37    35    36 2
    38     2     1 ar
    39     6     1 ar
    40     6    11 1
    41    39    38 1
    42    36    37 1
    43    11    12 3
    44    38    37 2
    45     1    41 1
    46     2    42 1
    47     5    43 1
    48     8    44 1
    49     8    45 1
    50     9    46 1
    51    10    47 1
    52    10    48 1
    53    19    49 1
    54    20    50 1
    55    21    51 1
    56    22    52 1
    57    23    53 1
    58    23    54 1
    59    24    55 1
    60    25    56 1
    61    25    57 1
    62    26    58 1
    63    26    59 1
    64    28    60 1
    65    28    61 1
    66    29    62 1
    67    29    63 1
    68    33    64 1
    69    33    65 1
    70    33    66 1
    71    34    67 1
    72    34    68 1
    73    36    69 1
    74    38    70 1
    75    40    71 1
    76    40    72 1
    77    40    73 1
@<TRIPOS>SUBSTRUCTURE
     1 PB9         1 TEMP              0 ****  ****    0 ROOT
