@<TRIPOS>MOLECULE
PB9
   73    77     1     0     0
SMALL
bcc


@<TRIPOS>ATOM
      1 C1           0.0000     0.0000     0.0000 ca         1 PB9      -0.043000
      2 C2           1.3740     0.0000     0.0000 ca         1 PB9      -0.163000
      3 C3           2.0860     0.0000     1.2040 ca         1 PB9       0.048600
      4 C4           1.3980     0.0080     2.4080 ca         1 PB9      -0.121300
      5 C5           0.0160     0.0060     2.4140 ca         1 PB9      -0.040000
      6 C6          -0.6950     0.0070     1.2130 ca         1 PB9      -0.003000
      7 N10          3.4730    -0.0180     1.1280 nh         1 PB9      -0.351000
      8 C11          4.1240     0.4490     2.3540 c3         1 PB9       0.104800
      9 C12          3.5790    -0.3590     3.5390 c3         1 PB9       0.193500
     10 C13          2.1110     0.0290     3.7360 c3         1 PB9      -0.013100
     11 C18         -2.1260     0.0050     1.2230 cg         1 PB9       0.235800
     12 N19         -3.2630    -0.0140     1.2430 n1         1 PB9      -0.385800
     13 N20          4.3430    -0.0420     4.7480 n3         1 PB9      -0.516500
     14 S22          5.1630    -1.2400     5.5450 sy         1 PB9       0.982800
     15 C23          6.8240    -1.2150     4.9570 ca         1 PB9       0.292200
     16 O24          5.2150    -0.8480     6.9100 o          1 PB9      -0.576300
     17 O25          4.6010    -2.4700     5.1100 o          1 PB9      -0.576300
     18 N26          7.6970    -0.3920     5.5040 nb         1 PB9      -0.479000
     19 C27          8.9500    -0.3390     5.0960 ca         1 PB9       0.377200
     20 C28          9.3940    -1.1530     4.0710 ca         1 PB9      -0.161300
     21 C29          8.5050    -2.0320     3.4710 ca         1 PB9      -0.101000
     22 C30          7.1970    -2.0630     3.9310 ca         1 PB9      -0.126300
     23 C35          4.3800     1.3330     5.2510 c3         1 PB9       0.239800
     24 C36          3.6360     1.4080     6.5850 c3         1 PB9      -0.120700
     25 C39          3.7000     2.8390     7.1250 c3         1 PB9      -0.049400
     26 C40          2.9830     2.9030     8.4780 c3         1 PB9       0.057000
     27 N41          1.6200     2.3800     8.3160 n          1 PB9      -0.136800
     28 C42          1.4400     1.0480     7.7220 c3         1 PB9       0.057000
     29 C43          2.1740     1.0040     6.3770 c3         1 PB9      -0.049400
     30 C53          0.5550     3.1070     8.7050 c          1 PB9       0.696100
     31 O54         -0.6890     2.6140     8.5500 os         1 PB9      -0.429900
     32 O55          0.7160     4.2070     9.1950 o          1 PB9      -0.663000
     33 C56         -1.7900     3.4530     8.9930 c3         1 PB9       0.285700
     34 C60          3.9470     0.7370    -0.0390 c3         1 PB9       0.246100
     35 C61          5.4360     0.9470     0.0680 cc         1 PB9      -0.440900
     36 C64          6.0590     2.0480     0.5300 cd         1 PB9       0.330200
     37 N65          7.3820     1.8350     0.4600 nd         1 PB9      -0.617000
     38 C66          7.6010     0.6450    -0.0270 cc         1 PB9       0.220400
     39 N67          6.4130     0.0550    -0.2800 na         1 PB9       0.306100
     40 C68          6.2090    -1.2890    -0.8270 c3         1 PB9      -0.015400
     41 H1          -0.5430     0.0010    -0.9370 ha         1 PB9       0.112000
     42 H2           1.9100    -0.0060    -0.9410 ha         1 PB9       0.121000
     43 H5          -0.5180     0.0110     3.3560 ha         1 PB9       0.116000
     44 H111         5.1940     0.3010     2.2760 h1         1 PB9       0.033200
     45 H112         3.9060     1.5000     2.5020 h1         1 PB9       0.033200
     46 H12          3.6500    -1.4180     3.3210 h1         1 PB9       0.074700
     47 H131         1.6450    -0.6960     4.3930 hc         1 PB9       0.051700
     48 H132         2.0670     1.0330     4.1400 hc         1 PB9       0.051700
     49 H27          9.6380     0.3500     5.5690 h4         1 PB9      -0.010900
     50 H28         10.4240    -1.1030     3.7390 ha         1 PB9       0.114000
     51 H29          8.8260    -2.6830     2.6670 ha         1 PB9       0.112000
     52 H30          6.4750    -2.7380     3.4870 ha         1 PB9       0.134000
     53 H351         5.4100     1.6370     5.3940 h1         1 PB9       0.022700
     54 H352         3.9050     1.9930     4.5350 h1         1 PB9       0.022700
     55 H36          4.0960     0.7350     7.2990 hc         1 PB9       0.101700
     56 H391         4.7360     3.1300     7.2520 hc         1 PB9       0.026950
     57 H392         3.2130     3.5090     6.4270 hc         1 PB9       0.026950
     58 H401         3.5190     2.3000     9.2000 h1         1 PB9       0.034700
     59 H402         2.9380     3.9310     8.8160 h1         1 PB9       0.034700
     60 H421         0.3850     0.8610     7.5640 h1         1 PB9       0.034700
     61 H422         1.8530     0.2970     8.3840 h1         1 PB9       0.034700
     62 H431         1.7040     1.6950     5.6870 hc         1 PB9       0.026950
     63 H432         2.1310    -0.0010     5.9760 hc         1 PB9       0.026950
     64 H561        -2.7280     2.9440     8.8100 h1         1 PB9       0.000033
     65 H562        -1.6880     3.6530    10.0520 h1         1 PB9       0.000033
     66 H563        -1.7730     4.3880     8.4450 h1         1 PB9       0.000033
     67 H601         3.4480     1.6980    -0.0740 h1         1 PB9       0.027200
     68 H602         3.7240     0.1820    -0.9420 h1         1 PB9       0.027200
     69 H64          5.5770     2.9470     0.8940 h4         1 PB9       0.006100
     70 H66          8.5750     0.2010    -0.1950 h5         1 PB9       0.024100
     71 H681         5.5970    -1.2260    -1.7190 h1         1 PB9       0.027367
     72 H682         5.7110    -1.9070    -0.0900 h1         1 PB9       0.027367
     73 H683         7.1680    -1.7270    -1.0770 h1         1 PB9       0.027367
@<TRIPOS>BOND
     1     1     2 ar  
     2     1     6 ar  
     3     1    41 1   
     4     2     3 ar  
     5     2    42 1   
     6     3     4 ar  
     7     3     7 1   
     8     4     5 ar  
     9     4    10 1   
    10     5     6 ar  
    11     5    43 1   
    12     6    11 1   
    13     7     8 1   
    14     7    34 1   
    15     8     9 1   
    16     8    44 1   
    17     8    45 1   
    18     9    10 1   
    19     9    13 1   
    20     9    46 1   
    21    10    47 1   
    22    10    48 1   
    23    11    12 3   
    24    13    14 1   
    25    13    23 1   
    26    14    15 1   
    27    14    16 2   
    28    14    17 2   
    29    15    18 ar  
    30    15    22 ar  
    31    18    19 ar  
    32    19    20 ar  
    33    19    49 1   
    34    20    21 ar  
    35    20    50 1   
    36    21    22 ar  
    37    21    51 1   
    38    22    52 1   
    39    23    24 1   
    40    23    53 1   
    41    23    54 1   
    42    24    25 1   
    43    24    29 1   
    44    24    55 1   
    45    25    26 1   
    46    25    56 1   
    47    25    57 1   
    48    26    27 1   
    49    26    58 1   
    50    26    59 1   
    51    27    28 1   
    52    27    30 1   
    53    28    29 1   
    54    28    60 1   
    55    28    61 1   
    56    29    62 1   
    57    29    63 1   
    58    30    31 1   
    59    30    32 2   
    60    31    33 1   
    61    33    64 1   
    62    33    65 1   
    63    33    66 1   
    64    34    35 1   
    65    34    67 1   
    66    34    68 1   
    67    35    36 2   
    68    35    39 1   
    69    36    37 1   
    70    36    69 1   
    71    37    38 2   
    72    38    39 1   
    73    38    70 1   
    74    39    40 1   
    75    40    71 1   
    76    40    72 1   
    77    40    73 1   
@<TRIPOS>SUBSTRUCTURE
     1 PB9         1 TEMP              0 ****  ****    0 ROOT
