@<TRIPOS>MOLECULE
molecule
   42    43     1     0     0
SMALL
bcc


@<TRIPOS>ATOM
      1 CAA          0.0000     0.0000     0.0000 c3         1 PBD       0.126700
      2 CAB          5.5990    -0.0010     0.2940 c3         1 PBD       0.127700
      3 SAC          2.1320    -1.8060     5.6490 s          1 PBD      -0.688400
      4 CAD          5.8530    -0.8920    13.6280 cc         1 PBD       0.299200
      5 CAE          1.9190     0.0010     3.6060 ca         1 PBD      -0.075000
      6 CAF          1.2940     0.0000     2.3750 ca         1 PBD      -0.188000
      7 CAG          4.8290    -0.7420    12.7670 cd         1 PBD      -0.247600
      8 CAH          5.9420    -2.5560    12.2570 cd         1 PBD       0.344400
      9 CAI          4.0650     0.0010     2.5190 ca         1 PBD      -0.201000
     10 CAJ          4.6330    -1.6680     9.3490 c3         1 PBD      -0.139400
     11 CAK          3.7130    -1.7920     8.1330 c3         1 PBD       0.116000
     12 CAL          4.1490    -2.6110    10.4520 c3         1 PBD       0.130300
     13 NAM          6.5160    -2.0090    13.2930 nc         1 PBD      -0.708000
     14 NAN          4.1760    -0.8890     7.0760 ns         1 PBD      -0.523900
     15 OAP          1.4300     0.0000     0.0000 os         1 PBD      -0.312900
     16 CAR          3.5140    -0.8280     5.9040 cs         1 PBD       0.602400
     17 CAS          3.3060     0.0010     3.6820 ca         1 PBD       0.021600
     18 CAT          2.0480     0.0000     1.2120 ca         1 PBD       0.125100
     19 CAU          3.4370     0.0010     1.2840 ca         1 PBD       0.116100
     20 NAV          4.8840    -1.7980    11.8970 na         1 PBD      -0.259900
     21 HAA         -0.3610    -0.8840     0.5110 h1         1 PBD       0.041700
     22 HAAA        -0.3610     0.8850     0.5110 h1         1 PBD       0.041700
     23 HAAB        -0.3610    -0.0000    -1.0210 h1         1 PBD       0.041700
     24 HAB          5.9050     0.8840     0.8380 h1         1 PBD       0.039033
     25 HABA         5.8910    -0.8850     0.8480 h1         1 PBD       0.039033
     26 HABB         6.0770    -0.0100    -0.6780 h1         1 PBD       0.039033
     27 HAE          1.3280     0.0010     4.5140 ha         1 PBD       0.175000
     28 HAF          0.2120     0.0000     2.3180 ha         1 PBD       0.148000
     29 HAG          4.1000     0.0600    12.7630 h4         1 PBD       0.167000
     30 HAH          6.2610    -3.4680    11.7670 h5         1 PBD       0.054100
     31 HAI          5.1470     0.0010     2.5780 ha         1 PBD       0.137000
     32 HAJ          5.6440    -1.9320     9.0650 hc         1 PBD       0.069700
     33 HAJA         4.6150    -0.6470     9.7120 hc         1 PBD       0.069700
     34 HAK          3.7310    -2.8130     7.7700 h1         1 PBD       0.075700
     35 HAKA         2.7020    -1.5280     8.4170 h1         1 PBD       0.075700
     36 HAL          3.1380    -2.3460    10.7360 h1         1 PBD       0.085200
     37 HALA         4.1670    -3.6310    10.0890 h1         1 PBD       0.085200
     38 HNAN         4.9760    -0.3070     7.2290 hn         1 PBD       0.312500
     39 NAO          3.9400     0.0030     4.9310 ns         1 PBD      -0.411100
     40 OAQ          4.1780    -0.0010     0.1440 os         1 PBD      -0.310900
     41 HAD          6.0980    -0.2280    14.4480 h4         1 PBD       0.041100
     42 HNAO         4.7470     0.5750     5.0810 hn         1 PBD       0.316500
@<TRIPOS>BOND
     1     1    15 1
     2     2    40 1
     3     3    16 2
     4     4     7 2
     5     4    13 1
     6     5     6 ar
     7     5    17 ar
     8     6    18 ar
     9     7    20 1
    10     8    13 2
    11     8    20 1
    12     9    17 ar
    13     9    19 ar
    14    10    11 1
    15    10    12 1
    16    11    14 1
    17    12    20 1
    18    14    16 1
    19    39    16 1
    20    39    17 1
    21    15    18 1
    22    40    19 1
    23    18    19 ar
    24     1    21 1
    25     1    22 1
    26     1    23 1
    27     2    24 1
    28     2    25 1
    29     2    26 1
    30     4    41 1
    31     5    27 1
    32     6    28 1
    33     7    29 1
    34     8    30 1
    35     9    31 1
    36    10    32 1
    37    10    33 1
    38    11    34 1
    39    11    35 1
    40    12    36 1
    41    12    37 1
    42    14    38 1
    43    39    42 1
@<TRIPOS>SUBSTRUCTURE
     1 PBD         1 TEMP              0 ****  ****    0 ROOT
