@<TRIPOS>MOLECULE
PBD
   44    40     1     0     0
SMALL
bcc


@<TRIPOS>ATOM
      1 CAA       -34.7110   37.1600 -239.2370 c3        1 PBD     -0.103000
      2 CAB       -37.3400   33.0910 -243.8040 c1        1 PBD     -0.032000
      3 SAC       -31.2090   31.2970 -245.7040 ss        1 PBD      1.095000
      4 CAD        97.7810  -93.3670  635.5470 c1        1 PBD      0.259000
      5 CAE       -32.6500   33.1980 -244.3070 c2        1 PBD      0.007000
      6 CAF       -31.9520   32.3240 -244.9880 c1        1 PBD     -0.851000
      7 CAG        99.0120  -93.9530  636.0860 c3        1 PBD     -0.196000
      8 CAH        96.2120  -91.6400  636.4690 c1        1 PBD      0.207000
      9 CAI       -33.9930   33.6110 -242.2980 c1        1 PBD     -0.132000
     10 CAJ         3.0450   13.6900    8.0410 c3        1 PBD     -0.266000
     11 CAK       -30.5400   30.0790 -244.9310 c2        1 PBD     -0.383000
     12 CAL       100.4670  -93.8900  637.9650 c2        1 PBD     -0.039000
     13 NAM        97.0160  -92.4300  636.1520 n2        1 PBD     -0.028000
     14 NAN       -30.4690   29.6480 -243.6430 n3        1 PBD     -0.222000
     15 OAP       -35.2470   36.1440 -240.1170 os        1 PBD     -0.099000
     16 CAR       -31.2930   30.1560 -242.6500 c1        1 PBD     -0.011000
     17 CAS       -33.1720   32.8740 -242.9830 c2        1 PBD     -0.014000
     18 CAT       -34.3730   35.3770 -240.7490 c2        1 PBD      0.211000
     19 CAU       -34.8700   34.3680 -241.6210 c2        1 PBD      0.044000
     20 NAV        99.4150  -93.4660  637.3780 n2        1 PBD     -0.251000
     21 HAA       -35.6370   37.6530 -238.8410 h1        1 PBD      0.126667
     22 HAAA      -34.0890   37.8760 -239.8250 h1        1 PBD      0.126667
     23 HAAB      -34.1260   36.6770 -238.4180 h1        1 PBD      0.126667
     24 HAB       -36.5150   33.7460 -242.5220 ho        1 PBD      0.305000
     25 HABA      -37.7360   32.0690 -243.7880 ha        1 PBD      0.066000
     26 HABB      -37.6570   33.6840 -244.6700 ha        1 PBD      0.066000
     27 HAE       -32.8780   34.2080 -244.6890 ha        1 PBD      0.130000
     28 HAF       -33.2850   35.5230 -240.5980 h4        1 PBD      0.174000
     29 HAH        95.4440  -90.9160  636.7220 ha        1 PBD      0.349000
     30 HAI       -32.7970   31.9010 -242.5650 ha        1 PBD      0.224000
     31 HAJ         2.8010   13.1140    7.1220 hc        1 PBD      0.066000
     32 HAJA        2.2500   13.5270    8.8010 hc        1 PBD      0.066000
     33 HAK         3.1070   14.7720    7.7960 hc        1 PBD      0.066000
     34 HAKA        4.0210   13.3450    8.4470 hc        1 PBD      0.066000
     35 HAL       101.1810  -94.6490  637.5900 h4        1 PBD      0.149000
     36 HALA      100.6960  -93.4540  638.9600 h4        1 PBD      0.149000
     37 HNAN      -29.9000   29.4600 -245.6110 h5        1 PBD      0.160000
     38 OAQ       -36.2260   34.2280 -241.6580 oh        1 PBD     -0.318000
     39 HAD        99.7920  -93.7750  635.2680 h1        1 PBD      0.200000
     40 HAN2      -29.8050   28.9170 -243.4590 hn        1 PBD      0.192000
     41 NAO       -31.2550   29.6810 -241.4050 n3        1 PBD     -0.326000
     42 HAG        98.8220  -95.0820  636.0630 h1        1 PBD      0.200000
     43 HNAO      -30.6770   28.9480 -241.0530 hn        1 PBD      0.219000
     44 HAO2      -31.8850   30.0910 -240.7560 hn        1 PBD      0.219000
@<TRIPOS>BOND
     1    1   15 1   
     2    1   21 1   
     3    1   22 1   
     4    1   23 1   
     5    2   25 1   
     6    2   26 1   
     7    3    6 1   
     8    3   11 1   
     9    4    7 1   
    10    4   13 1   
    11    5    6 1   
    12    5   17 1   
    13    5   27 1   
    14    7   20 1   
    15    7   39 1   
    16    7   42 1   
    17    8   13 1   
    18    8   29 1   
    19    9   17 1   
    20    9   19 1   
    21   10   31 1   
    22   10   32 1   
    23   10   33 1   
    24   10   34 1   
    25   11   14 1   
    26   11   37 1   
    27   12   20 1   
    28   12   35 1   
    29   12   36 1   
    30   14   16 1   
    31   14   40 1   
    32   15   18 1   
    33   16   41 1   
    34   17   30 1   
    35   18   19 1   
    36   18   28 1   
    37   19   38 1   
    38   24   38 1   
    39   41   43 1   
    40   41   44 1   
@<TRIPOS>SUBSTRUCTURE
     1 PBD         1 TEMP              0 ****  ****    0 ROOT
