@<TRIPOS>MOLECULE
PBE
   23    23     1     0     0
SMALL
bcc


@<TRIPOS>ATOM
      1 N            0.0000     0.0000     0.0000 n4         1 PBE       0.081200
      2 CD           1.4790     0.0000     0.0000 c3         1 PBE      -0.008200
      3 CA          -0.4680     0.5720     1.2750 c3         1 PBE      -0.161500
      4 CB           0.7810     0.9160     2.1100 c3         1 PBE      -0.007400
      5 CG           1.8740     0.0000     1.4980 c3         1 PBE      -0.036400
      6 CE          -0.4940     0.8150    -1.1180 c3         1 PBE      -0.008400
      7 CF          -0.4930    -1.3770    -0.1360 c3         1 PBE      -0.008400
      8 C           -1.2720     1.8200     1.0170 c          1 PBE       0.955600
      9 O           -0.7990     2.7190     0.3620 o          1 PBE      -0.821300
     10 OXT         -2.5130     1.9340     1.5160 o          1 PBE      -0.821300
     11 HD1          1.8550    -0.8910    -0.4880 hx         1 PBE       0.067200
     12 HD2          1.8550     0.8910    -0.4880 hx         1 PBE       0.067200
     13 HA          -1.0710    -0.1570     1.8030 hx         1 PBE       0.085700
     14 HB1          1.0460     1.9590     1.9870 hc         1 PBE       0.054700
     15 HB2          0.6210     0.6740     3.1540 hc         1 PBE       0.054700
     16 HG1          1.8150    -0.9990     1.9130 hc         1 PBE       0.036700
     17 HG2          2.8590     0.4290     1.6380 hc         1 PBE       0.036700
     18 HE1          0.0050     1.7770    -1.1110 hx         1 PBE       0.072367
     19 HE2         -0.2880     0.3080    -2.0530 hx         1 PBE       0.072367
     20 HE3         -1.5620     0.9610    -1.0140 hx         1 PBE       0.072367
     21 HF1         -1.5760    -1.3740    -0.1360 hx         1 PBE       0.072367
     22 HF2         -0.1340    -1.9730     0.6950 hx         1 PBE       0.072367
     23 HF3         -0.1330    -1.8000    -1.0660 hx         1 PBE       0.072367
@<TRIPOS>BOND
     1     1     2 1   
     2     1     3 1   
     3     1     6 1   
     4     1     7 1   
     5     2     5 1   
     6     2    11 1   
     7     2    12 1   
     8     3     4 1   
     9     3     8 1   
    10     3    13 1   
    11     4     5 1   
    12     4    14 1   
    13     4    15 1   
    14     5    16 1   
    15     5    17 1   
    16     6    18 1   
    17     6    19 1   
    18     6    20 1   
    19     7    21 1   
    20     7    22 1   
    21     7    23 1   
    22     8     9 1   
    23     8    10 1   
@<TRIPOS>SUBSTRUCTURE
     1 PBE         1 TEMP              0 ****  ****    0 ROOT
