@<TRIPOS>MOLECULE
molecule
   29    29     1     0     0
SMALL
bcc


@<TRIPOS>ATOM
      1 CHA          0.0000     0.0000     0.0000 c3         1 PBG       0.210100
      2 C1A          1.5070     0.0000     0.0000 cc         1 PBG      -0.295600
      3 C2A          2.2980     0.0000     1.0910 cd         1 PBG       0.031700
      4 C3A          3.6340    -0.0030     0.6440 cd         1 PBG      -0.096300
      5 C4A          3.6080     0.0030    -0.7040 cc         1 PBG      -0.144300
      6 NA           2.3050     0.0060    -1.1050 na         1 PBG      -0.222100
      7 C5A          1.8390    -0.0070     2.5260 c3         1 PBG      -0.143100
      8 C6A          1.6910     1.4120     3.0120 c          1 PBG       0.892600
      9 O1A          1.2890     1.6510     4.2700 o          1 PBG      -0.831300
     10 O2A          1.9340     2.3330     2.2700 o          1 PBG      -0.831300
     11 C7A          4.8650    -0.0080     1.5120 c3         1 PBG       0.003900
     12 C8A          5.2820     1.4320     1.8140 c3         1 PBG      -0.183400
     13 C9A          6.5130     1.4280     2.6820 c          1 PBG       0.896600
     14 O3A          7.0610     2.5880     3.0750 o          1 PBG      -0.863300
     15 O4A          7.0070     0.3810     3.0240 o          1 PBG      -0.863300
     16 N1          -0.4910     0.0070    -1.3830 nz         1 PBG      -0.813600
     17 HHA2        -0.3610    -0.8870     0.5060 hx         1 PBG       0.112700
     18 HHA1        -0.3610     0.8820     0.5160 hx         1 PBG       0.112700
     19 H4A1         4.4730     0.0050    -1.3550 h4         1 PBG       0.170000
     20 HA           1.9880     0.0110    -2.0550 hn         1 PBG       0.235700
     21 H5A2         2.5700    -0.5230     3.1370 hc         1 PBG       0.044700
     22 H5A1         0.8850    -0.5150     2.5970 hc         1 PBG       0.044700
     23 H7A2         5.6700    -0.5150     0.9950 hc         1 PBG       0.051700
     24 H7A1         4.6500    -0.5240     2.4400 hc         1 PBG       0.051700
     25 H8A2         4.4770     1.9400     2.3320 hc         1 PBG       0.052200
     26 H8A1         5.4960     1.9480     0.8860 hc         1 PBG       0.052200
     27 H12         -1.4920     0.0100    -1.3820 hn         1 PBG       0.442133
     28 H11         -0.1570     0.8260    -1.8520 hn         1 PBG       0.442133
     29 H13         -0.1610    -0.8080    -1.8590 hn         1 PBG       0.442133
@<TRIPOS>BOND
     1     1     2 1
     2     1    16 1
     3     1    17 1
     4     1    18 1
     5     2     3 2
     6     2     6 1
     7     3     4 1
     8     3     7 1
     9     4     5 2
    10     4    11 1
    11     5     6 1
    12     5    19 1
    13     6    20 1
    14     7     8 1
    15     7    21 1
    16     7    22 1
    17     8     9 1
    18     8    10 1
    19    11    12 1
    20    11    23 1
    21    11    24 1
    22    12    13 1
    23    12    25 1
    24    12    26 1
    25    13    14 1
    26    13    15 1
    27    16    27 1
    28    16    28 1
    29    29    16 1
@<TRIPOS>SUBSTRUCTURE
     1 PBG         1 TEMP              0 ****  ****    0 ROOT
