@<TRIPOS>MOLECULE
molecule
   84    90     1     0     0
SMALL
bcc


@<TRIPOS>ATOM
      1 C1           0.0000     0.0000     0.0000 c3         1 PBH      -0.100400
      2 O2           6.8050    -2.5660    -0.7140 os         1 PBH      -0.312900
      3 C3           0.7860     0.3080     2.2550 c3         1 PBH       0.115000
      4 N4           1.9500     0.0000     1.4370 n          1 PBH      -0.485800
      5 O4           9.3300     1.9070    -5.8930 os         1 PBH      -0.322900
      6 N5           9.9380    11.2990   -12.3440 nh         1 PBH      -0.596000
      7 O5           3.5200    -0.5660     2.9580 o          1 PBH      -0.633500
      8 N6           9.0790    13.1820   -14.3000 n3         1 PBH      -0.734600
      9 C7           5.9760    -1.5080    -0.5030 ca         1 PBH       0.099100
     10 C9           5.2140     0.7040    -1.1430 ca         1 PBH      -0.254000
     11 N10          3.2970     1.6300    -0.0160 nu         1 PBH      -0.737600
     12 C11          1.9220     1.4560    -0.5620 c3         1 PBH       0.179800
     13 C12          6.6480    -3.6950     0.1490 c3         1 PBH       0.126700
     14 C13          7.0840     0.8720    -3.0650 c3         1 PBH       0.140400
     15 O13          7.0290    -0.3160    -2.2710 os         1 PBH      -0.308900
     16 C14          8.2150     0.7500    -4.0880 c3         1 PBH      -0.084400
     17 C15          8.2720     2.0210    -4.9370 c3         1 PBH       0.140400
     18 C17          9.5180     2.9590    -6.7320 ca         1 PBH       0.155100
     19 C18         10.5280     2.9130    -7.6840 ca         1 PBH      -0.192500
     20 C19          8.6960     4.0750    -6.6390 ca         1 PBH      -0.192500
     21 C1A          1.5500     0.0000     0.0000 c3         1 PBH       0.085700
     22 C20         10.7210     3.9770    -8.5380 ca         1 PBH      -0.063500
     23 C21          8.8840     5.1430    -7.4890 ca         1 PBH      -0.063500
     24 C22          9.9010     5.1030    -8.4440 ca         1 PBH      -0.140900
     25 C23         10.1070     6.2470    -9.3570 cc         1 PBH       0.474400
     26 C24          9.8680     8.2110   -10.3550 ca         1 PBH      -0.067200
     27 C25         10.9310     7.4990   -10.9390 ca         1 PBH       0.072400
     28 C26          9.5400     9.4730   -10.8240 ca         1 PBH      -0.162000
     29 C27         11.6500     8.0760   -11.9920 ca         1 PBH      -0.047000
     30 C28         10.2640    10.0270   -11.8680 ca         1 PBH       0.120600
     31 C29         11.3180     9.3190   -12.4450 ca         1 PBH      -0.192000
     32 C2D         -0.3860    -0.3350     1.4630 c3         1 PBH      -0.114400
     33 C30         10.8250    11.6940   -13.4470 c3         1 PBH       0.165300
     34 N30         11.0240     6.3130   -10.2900 nd         1 PBH      -0.594100
     35 C31          8.5290    11.3610   -12.7590 c3         1 PBH       0.165300
     36 C32         10.4870    13.1210   -13.8850 c3         1 PBH       0.160300
     37 C33          8.1900    12.7870   -13.1970 c3         1 PBH       0.160300
     38 C34          8.7350    14.5200   -14.8000 c3         1 PBH       0.153100
     39 N40          9.3610     7.3980    -9.3590 na         1 PBH      -0.265300
     40 C5A          4.2050    -0.4550     0.6810 ca         1 PBH      -0.149600
     41 C5D          3.2140    -0.3510     1.8010 c          1 PBH       0.752100
     42 C6D          5.0310    -1.5540     0.5090 ca         1 PBH      -0.135000
     43 C8D          6.0730    -0.3700    -1.3080 ca         1 PBH       0.148100
     44 C9A          4.2390     0.6470    -0.1470 ca         1 PBH       0.147600
     45 H1          -0.3660     0.9870    -0.2580 hc         1 PBH       0.053200
     46 H1A         -0.3660    -0.7760    -0.6610 hc         1 PBH       0.053200
     47 H3           0.6450     1.3820     2.2160 h1         1 PBH       0.068700
     48 H3A          0.8890    -0.2500     3.1780 h1         1 PBH       0.068700
     49 H9           5.3020     1.5800    -1.7760 ha         1 PBH       0.140000
     50 HN10         3.6760     2.5000    -0.3370 hn         1 PBH       0.369800
     51 H11          1.9310     1.4620    -1.6450 h1         1 PBH       0.048200
     52 H11A         1.2500     2.2070    -0.1650 h1         1 PBH       0.048200
     53 H12          6.8710    -3.4050     1.1680 h1         1 PBH       0.043033
     54 H12A         7.3270    -4.4810    -0.1590 h1         1 PBH       0.043033
     55 H12B         5.6280    -4.0550     0.0900 h1         1 PBH       0.043033
     56 H13          6.1410     1.0030    -3.5820 h1         1 PBH       0.034200
     57 H13A         7.2660     1.7260    -2.4250 h1         1 PBH       0.034200
     58 H14          9.1570     0.6180    -3.5710 hc         1 PBH       0.074200
     59 H14A         8.0320    -0.1040    -4.7290 hc         1 PBH       0.074200
     60 H15          8.4550     2.8750    -4.2960 h1         1 PBH       0.036200
     61 H15A         7.3300     2.1530    -5.4550 h1         1 PBH       0.036200
     62 H18         11.1630     2.0390    -7.7570 ha         1 PBH       0.143500
     63 H19          7.9060     4.1050    -5.8980 ha         1 PBH       0.143500
     64 H1AA         1.9830    -0.8100    -0.5730 h1         1 PBH       0.084700
     65 H20         11.5110     3.9410    -9.2790 ha         1 PBH       0.144000
     66 H21          8.2440     6.0150    -7.4150 ha         1 PBH       0.144000
     67 H26          8.6630     9.9820   -10.4430 ha         1 PBH       0.132000
     68 H27         12.4700     7.5350   -12.4480 ha         1 PBH       0.142000
     69 H29         11.8790     9.7610   -13.2600 ha         1 PBH       0.140000
     70 H2D         -1.3290     0.1270     1.7270 hc         1 PBH       0.055700
     71 H2DA        -0.4130    -1.4060     1.6180 hc         1 PBH       0.055700
     72 H30         11.8550    11.6550   -13.1120 h1         1 PBH       0.049950
     73 H30A        10.6850    11.0180   -14.2810 h1         1 PBH       0.049950
     74 H31          7.8960    11.0810   -11.9250 h1         1 PBH       0.049950
     75 H31A         8.3670    10.6820   -13.5870 h1         1 PBH       0.049950
     76 H32         11.1200    13.4010   -14.7180 h1         1 PBH       0.042950
     77 H32A        10.6480    13.8000   -13.0570 h1         1 PBH       0.042950
     78 H33          8.3300    13.4640   -12.3630 h1         1 PBH       0.042950
     79 H33A         7.1610    12.8270   -13.5330 h1         1 PBH       0.042950
     80 H34          9.3810    14.7710   -15.6330 h1         1 PBH       0.033033
     81 H34A         8.8680    15.2470   -14.0080 h1         1 PBH       0.033033
     82 H34B         7.7030    14.5290   -15.1280 h1         1 PBH       0.033033
     83 HN40         8.6870     7.6630    -8.6690 hn         1 PBH       0.300700
     84 H6D          5.1130    -2.2980     1.2930 ha         1 PBH       0.164000
@<TRIPOS>BOND
     1     1    21 1
     2     1    32 1
     3     2     9 1
     4     2    13 1
     5     3     4 1
     6     3    32 1
     7     4    21 1
     8     4    41 1
     9     5    17 1
    10     5    18 1
    11     6    30 1
    12     6    33 1
    13     6    35 1
    14     7    41 2
    15     8    36 1
    16     8    37 1
    17     8    38 1
    18     9    42 ar
    19     9    43 ar
    20    10    43 ar
    21    10    44 ar
    22    11    12 1
    23    11    44 1
    24    12    21 1
    25    14    15 1
    26    14    16 1
    27    15    43 1
    28    16    17 1
    29    18    19 ar
    30    18    20 ar
    31    19    22 ar
    32    20    23 ar
    33    22    24 ar
    34    23    24 ar
    35    24    25 1
    36    25    34 2
    37    25    39 1
    38    26    27 ar
    39    26    28 ar
    40    26    39 1
    41    27    29 ar
    42    27    34 1
    43    28    30 ar
    44    29    31 ar
    45    30    31 ar
    46    33    36 1
    47    35    37 1
    48    40    41 1
    49    40    42 ar
    50    40    44 ar
    51     1    45 1
    52     1    46 1
    53     3    47 1
    54     3    48 1
    55    10    49 1
    56    11    50 1
    57    12    51 1
    58    12    52 1
    59    13    53 1
    60    13    54 1
    61    13    55 1
    62    14    56 1
    63    14    57 1
    64    16    58 1
    65    16    59 1
    66    17    60 1
    67    17    61 1
    68    19    62 1
    69    20    63 1
    70    21    64 1
    71    22    65 1
    72    23    66 1
    73    28    67 1
    74    29    68 1
    75    31    69 1
    76    32    70 1
    77    32    71 1
    78    33    72 1
    79    33    73 1
    80    35    74 1
    81    35    75 1
    82    36    76 1
    83    36    77 1
    84    37    78 1
    85    37    79 1
    86    38    80 1
    87    38    81 1
    88    38    82 1
    89    39    83 1
    90    42    84 1
@<TRIPOS>SUBSTRUCTURE
     1 PBH         1 TEMP              0 ****  ****    0 ROOT
