@<TRIPOS>MOLECULE
PBH
   84    90     1     0     0
SMALL
bcc


@<TRIPOS>ATOM
      1 C1           0.0000     0.0000     0.0000 c3         1 PBH      -0.043400
      2 O2           6.8050    -2.5660    -0.7140 os         1 PBH      -0.292900
      3 C3           0.7860     0.3080     2.2550 c3         1 PBH       0.066000
      4 N4           1.9500     0.0000     1.4370 n          1 PBH      -0.164800
      5 O4           9.3300     1.9070    -5.8930 os         1 PBH      -0.300900
      6 N5           9.9380    11.2990   -12.3440 nh         1 PBH      -0.362000
      7 O5           3.5200    -0.5660     2.9580 o          1 PBH      -0.673500
      8 N6           9.0790    13.1820   -14.3000 n3         1 PBH      -0.549600
      9 C7           5.9760    -1.5080    -0.5030 ca         1 PBH       0.103100
     10 C9           5.2140     0.7040    -1.1430 ca         1 PBH      -0.236000
     11 N10          3.2970     1.6300    -0.0160 nu         1 PBH      -0.435600
     12 C11          1.9220     1.4560    -0.5620 c3         1 PBH       0.144800
     13 C12          6.6480    -3.6950     0.1490 c3         1 PBH       0.240700
     14 C13          7.0840     0.8720    -3.0650 c3         1 PBH       0.206400
     15 O13          7.0290    -0.3160    -2.2710 os         1 PBH      -0.287900
     16 C14          8.2150     0.7500    -4.0880 c3         1 PBH      -0.042400
     17 C15          8.2720     2.0210    -4.9370 c3         1 PBH       0.207400
     18 C17          9.5180     2.9590    -6.7320 ca         1 PBH       0.160100
     19 C18         10.5280     2.9130    -7.6840 ca         1 PBH      -0.177000
     20 C19          8.6960     4.0750    -6.6390 ca         1 PBH      -0.177000
     21 C1A          1.5500     0.0000     0.0000 c3         1 PBH       0.004700
     22 C20         10.7210     3.9770    -8.5380 ca         1 PBH      -0.040000
     23 C21          8.8840     5.1430    -7.4890 ca         1 PBH      -0.040000
     24 C22          9.9010     5.1030    -8.4440 ca         1 PBH      -0.141900
     25 C23         10.1070     6.2470    -9.3570 cc         1 PBH       0.270400
     26 C24          9.8680     8.2110   -10.3550 ca         1 PBH      -0.246200
     27 C25         10.9310     7.4990   -10.9390 ca         1 PBH       0.044400
     28 C26          9.5400     9.4730   -10.8240 ca         1 PBH      -0.126000
     29 C27         11.6500     8.0760   -11.9920 ca         1 PBH      -0.010000
     30 C28         10.2640    10.0270   -11.8680 ca         1 PBH       0.035600
     31 C29         11.3180     9.3190   -12.4450 ca         1 PBH      -0.177000
     32 C2D         -0.3860    -0.3350     1.4630 c3         1 PBH      -0.053400
     33 C30         10.8250    11.6940   -13.4470 c3         1 PBH       0.135800
     34 N30         11.0240     6.3130   -10.2900 nd         1 PBH      -0.509100
     35 C31          8.5290    11.3610   -12.7590 c3         1 PBH       0.135800
     36 C32         10.4870    13.1210   -13.8850 c3         1 PBH       0.153300
     37 C33          8.1900    12.7870   -13.1970 c3         1 PBH       0.153300
     38 C34          8.7350    14.5200   -14.8000 c3         1 PBH       0.189100
     39 N40          9.3610     7.3980    -9.3590 na         1 PBH       0.257700
     40 C5A          4.2050    -0.4550     0.6810 ca         1 PBH      -0.155600
     41 C5D          3.2140    -0.3510     1.8010 c          1 PBH       0.691100
     42 C6D          5.0310    -1.5540     0.5090 ca         1 PBH      -0.116000
     43 C8D          6.0730    -0.3700    -1.3080 ca         1 PBH       0.150100
     44 C9A          4.2390     0.6470    -0.1470 ca         1 PBH       0.043600
     45 H1          -0.3660     0.9870    -0.2580 hc         1 PBH       0.026200
     46 H1A         -0.3660    -0.7760    -0.6610 hc         1 PBH       0.026200
     47 H3           0.6450     1.3820     2.2160 h1         1 PBH       0.038200
     48 H3A          0.8890    -0.2500     3.1780 h1         1 PBH       0.038200
     49 H9           5.3020     1.5800    -1.7760 ha         1 PBH       0.127000
     50 HN10         3.6760     2.5000    -0.3370 hn         1 PBH       0.248800
     51 H11          1.9310     1.4620    -1.6450 h1         1 PBH       0.020200
     52 H11A         1.2500     2.2070    -0.1650 h1         1 PBH       0.020200
     53 H12          6.8710    -3.4050     1.1680 h1         1 PBH      -0.000967
     54 H12A         7.3270    -4.4810    -0.1590 h1         1 PBH      -0.000967
     55 H12B         5.6280    -4.0550     0.0900 h1         1 PBH      -0.000967
     56 H13          6.1410     1.0030    -3.5820 h1         1 PBH       0.000200
     57 H13A         7.2660     1.7260    -2.4250 h1         1 PBH       0.000200
     58 H14          9.1570     0.6180    -3.5710 hc         1 PBH       0.037200
     59 H14A         8.0320    -0.1040    -4.7290 hc         1 PBH       0.037200
     60 H15          8.4550     2.8750    -4.2960 h1         1 PBH       0.001200
     61 H15A         7.3300     2.1530    -5.4550 h1         1 PBH       0.001200
     62 H18         11.1630     2.0390    -7.7570 ha         1 PBH       0.120000
     63 H19          7.9060     4.1050    -5.8980 ha         1 PBH       0.120000
     64 H1AA         1.9830    -0.8100    -0.5730 h1         1 PBH       0.056700
     65 H20         11.5110     3.9410    -9.2790 ha         1 PBH       0.111500
     66 H21          8.2440     6.0150    -7.4150 ha         1 PBH       0.111500
     67 H26          8.6630     9.9820   -10.4430 ha         1 PBH       0.111000
     68 H27         12.4700     7.5350   -12.4480 ha         1 PBH       0.108000
     69 H29         11.8790     9.7610   -13.2600 ha         1 PBH       0.125000
     70 H2D         -1.3290     0.1270     1.7270 hc         1 PBH       0.025700
     71 H2DA        -0.4130    -1.4060     1.6180 hc         1 PBH       0.025700
     72 H30         11.8550    11.6550   -13.1120 h1         1 PBH       0.024450
     73 H30A        10.6850    11.0180   -14.2810 h1         1 PBH       0.024450
     74 H31          7.8960    11.0810   -11.9250 h1         1 PBH       0.024450
     75 H31A         8.3670    10.6820   -13.5870 h1         1 PBH       0.024450
     76 H32         11.1200    13.4010   -14.7180 h1         1 PBH       0.014950
     77 H32A        10.6480    13.8000   -13.0570 h1         1 PBH       0.014950
     78 H33          8.3300    13.4640   -12.3630 h1         1 PBH       0.014950
     79 H33A         7.1610    12.8270   -13.5330 h1         1 PBH       0.014950
     80 H34          9.3810    14.7710   -15.6330 h1         1 PBH       0.000700
     81 H34A         8.8680    15.2470   -14.0080 h1         1 PBH       0.000700
     82 H34B         7.7030    14.5290   -15.1280 h1         1 PBH       0.000700
     83 HN40         8.6870     7.6630    -8.6690 hn         1 PBH       0.128700
     84 H6D          5.1130    -2.2980     1.2930 ha         1 PBH       0.140000
@<TRIPOS>BOND
     1     1    21 1   
     2     1    32 1   
     3     1    45 1   
     4     1    46 1   
     5     2     9 1   
     6     2    13 1   
     7     3     4 1   
     8     3    32 1   
     9     3    47 1   
    10     3    48 1   
    11     4    21 1   
    12     4    41 1   
    13     5    17 1   
    14     5    18 1   
    15     6    30 1   
    16     6    33 1   
    17     6    35 1   
    18     7    41 2   
    19     8    36 1   
    20     8    37 1   
    21     8    38 1   
    22     9    42 ar  
    23     9    43 ar  
    24    10    43 ar  
    25    10    44 ar  
    26    10    49 1   
    27    11    12 1   
    28    11    44 1   
    29    11    50 1   
    30    12    21 1   
    31    12    51 1   
    32    12    52 1   
    33    13    53 1   
    34    13    54 1   
    35    13    55 1   
    36    14    15 1   
    37    14    16 1   
    38    14    56 1   
    39    14    57 1   
    40    15    43 1   
    41    16    17 1   
    42    16    58 1   
    43    16    59 1   
    44    17    60 1   
    45    17    61 1   
    46    18    19 ar  
    47    18    20 ar  
    48    19    22 ar  
    49    19    62 1   
    50    20    23 ar  
    51    20    63 1   
    52    21    64 1   
    53    22    24 ar  
    54    22    65 1   
    55    23    24 ar  
    56    23    66 1   
    57    24    25 1   
    58    25    34 2   
    59    25    39 1   
    60    26    27 ar  
    61    26    28 ar  
    62    26    39 1   
    63    27    29 ar  
    64    27    34 1   
    65    28    30 ar  
    66    28    67 1   
    67    29    31 ar  
    68    29    68 1   
    69    30    31 ar  
    70    31    69 1   
    71    32    70 1   
    72    32    71 1   
    73    33    36 1   
    74    33    72 1   
    75    33    73 1   
    76    35    37 1   
    77    35    74 1   
    78    35    75 1   
    79    36    76 1   
    80    36    77 1   
    81    37    78 1   
    82    37    79 1   
    83    38    80 1   
    84    38    81 1   
    85    38    82 1   
    86    39    83 1   
    87    40    41 1   
    88    40    42 ar  
    89    40    44 ar  
    90    42    84 1   
@<TRIPOS>SUBSTRUCTURE
     1 PBH         1 TEMP              0 ****  ****    0 ROOT
