@<TRIPOS>MOLECULE
PBI
   35    36     1     0     0
SMALL
bcc


@<TRIPOS>ATOM
      1 N1           0.0000     0.0000     0.0000 nz         1 PBI       0.102400
      2 CA1          1.4680     0.0000     0.0000 c3         1 PBI      -0.048500
      3 C1           1.9710     0.0000     1.4210 c2         1 PBI       0.258900
      4 N2           1.1950     0.0010     2.4470 n2         1 PBI      -0.612900
      5 N3           3.2980    -0.0050     1.7510 n          1 PBI      -0.017300
      6 C2           3.4550    -0.0010     3.0920 c          1 PBI       0.595500
      7 O2           4.4950    -0.0010     3.7140 o          1 PBI      -0.542500
      8 CA2          2.0450     0.0000     3.6480 c3         1 PBI       0.042500
      9 CA3          4.3980    -0.0080     0.7820 c3         1 PBI      -0.094000
     10 C3           4.7750    -1.4290     0.4560 c          1 PBI       0.628900
     11 O3           4.6980    -1.8280    -0.6810 o          1 PBI      -0.519100
     12 CB2          1.7930    -1.2560     4.4830 c3         1 PBI       0.010600
     13 CG2          0.3350    -1.2770     4.9450 c3         1 PBI       0.037700
     14 CD1          0.1060    -2.5100     5.7610 c2         1 PBI      -0.131700
     15 CD2          0.0490    -0.0180     5.6980 c2         1 PBI      -0.131700
     16 CE1          0.0070    -2.4950     7.0830 ce         1 PBI      -0.173200
     17 CE2         -0.0490     0.0270     7.0210 ce         1 PBI      -0.173200
     18 CZ           0.1130    -1.2110     7.8010 c          1 PBI       0.589500
     19 OH           0.3270    -1.1780     8.9990 o          1 PBI      -0.512100
     20 HN11        -0.3340     0.7980     0.5030 hn         1 PBI       0.231467
     21 HN12        -0.3340     0.0370    -0.9430 hn         1 PBI       0.231467
     22 HA11         1.8290    -0.8840    -0.5110 hx         1 PBI       0.095200
     23 HA12         1.8290     0.8840    -0.5110 hx         1 PBI       0.095200
     24 HA2          1.8710     0.8950     4.2340 h1         1 PBI       0.097700
     25 HA31         4.0840     0.4990    -0.1230 h1         1 PBI       0.063700
     26 HA32         5.2530     0.5050     1.2050 h1         1 PBI       0.063700
     27 HC3          5.1590    -2.0780     1.2330 h4         1 PBI      -0.001800
     28 HB21         1.9950    -2.1350     3.8840 hc         1 PBI       0.039200
     29 HB22         2.4450    -1.2510     5.3480 hc         1 PBI       0.039200
     30 HG2         -0.3090    -1.3130     4.0750 hc         1 PBI       0.034700
     31 HD1          0.0170    -3.4600     5.2470 ha         1 PBI       0.102000
     32 HD2         -0.0860     0.9000     5.1390 ha         1 PBI       0.102000
     33 HE1         -0.2930    -3.3900     7.6140 ha         1 PBI       0.132500
     34 HE2         -0.3840     0.9350     7.5080 ha         1 PBI       0.132500
     35 H13         -0.3340    -0.8280     0.4520 hn         1 PBI       0.231467
@<TRIPOS>BOND
     1     1     2 1   
     2     1    20 1   
     3     1    21 1   
     4     1    35 1   
     5     2     3 1   
     6     2    22 1   
     7     2    23 1   
     8     3     4 2   
     9     3     5 1   
    10     4     8 1   
    11     5     6 1   
    12     5     9 1   
    13     6     7 2   
    14     6     8 1   
    15     8    12 1   
    16     8    24 1   
    17     9    10 1   
    18     9    25 1   
    19     9    26 1   
    20    10    11 2   
    21    10    27 1   
    22    12    13 1   
    23    12    28 1   
    24    12    29 1   
    25    13    14 1   
    26    13    15 1   
    27    13    30 1   
    28    14    16 2   
    29    14    31 1   
    30    15    17 2   
    31    15    32 1   
    32    16    18 1   
    33    16    33 1   
    34    17    18 1   
    35    17    34 1   
    36    18    19 2   
@<TRIPOS>SUBSTRUCTURE
     1 PBI         1 TEMP              0 ****  ****    0 ROOT
