@<TRIPOS>MOLECULE
molecule
   71    73     1     0     0
SMALL
bcc


@<TRIPOS>ATOM
      1 P            0.0000     0.0000     0.0000 p5         1 PBK       1.329800
      2 C1          13.5330     8.1670     3.8070 c3         1 PBK      -0.092100
      3 N1          -2.4440    -6.2090    -0.4520 na         1 PBK      -0.245000
      4 O1           1.5610     2.0020     0.9340 o          1 PBK      -0.505000
      5 C2          12.0060     8.0940     3.7730 c3         1 PBK      -0.084400
      6 N2          -2.5620    -7.1940     1.4930 nc         1 PBK      -0.606100
      7 O2           1.6100     0.0000     0.0000 os         1 PBK      -0.549500
      8 C3          11.5710     6.7640     3.1530 c3         1 PBK      -0.081400
      9 N3          -2.6160    -8.3050    -1.7940 nb         1 PBK      -0.779000
     10 O3          -0.5360     0.0000     1.5180 o          1 PBK      -0.795000
     11 C4          10.0440     6.6920     3.1200 c3         1 PBK      -0.082400
     12 N4          -2.8080   -10.2400    -0.5440 nb         1 PBK      -0.846000
     13 O4          -0.4930     1.2090    -0.6980 o          1 PBK      -0.795000
     14 C5           9.6100     5.3620     2.4990 c3         1 PBK      -0.082400
     15 N5          -2.8350   -10.2390     1.8150 nv         1 PBK      -0.991500
     16 O5          -0.5360    -1.3150    -0.7590 os         1 PBK      -0.595200
     17 C6           8.0820     5.2900     2.4660 c3         1 PBK      -0.082400
     18 O6          -1.7000    -3.9820    -0.8910 os         1 PBK      -0.386600
     19 C7           7.6480     3.9600     1.8460 c3         1 PBK      -0.082400
     20 O7          -4.1330    -5.2890    -3.1080 oh         1 PBK      -0.567800
     21 C8           6.1200     3.8870     1.8120 c3         1 PBK      -0.080400
     22 O8          -3.8510    -2.7790    -3.4340 oh         1 PBK      -0.575800
     23 C9           5.6870     2.5580     1.1920 c3         1 PBK      -0.084400
     24 C10          4.1580     2.4850     1.1590 c3         1 PBK      -0.072400
     25 C11          3.7240     1.1550     0.5380 c3         1 PBK      -0.138400
     26 C12          2.2190     1.0840     0.5050 c          1 PBK       0.682100
     27 C13         -1.9230    -1.5530    -1.0170 c3         1 PBK       0.238400
     28 C14         -2.0820    -2.8870    -1.7500 c3         1 PBK       0.123100
     29 C15         -3.5690    -3.1430    -2.0810 c3         1 PBK       0.087100
     30 C16         -3.7390    -4.6660    -1.8840 c3         1 PBK       0.083100
     31 C17         -2.3350    -5.1490    -1.4570 c3         1 PBK       0.248800
     32 C18         -2.4520    -6.0400     0.9010 cd         1 PBK       0.448700
     33 C19         -2.6350    -8.1740     0.5600 ca         1 PBK      -0.208200
     34 C20         -2.5630    -7.5530    -0.6990 ca         1 PBK       0.471800
     35 C21         -2.7360    -9.6130    -1.7040 ca         1 PBK       0.726900
     36 C22         -2.7590    -9.5730     0.6040 ca         1 PBK       0.781200
     37 H1          13.9210     8.0890     2.7990 hc         1 PBK       0.030700
     38 H1A         13.9210     7.3520     4.4070 hc         1 PBK       0.030700
     39 H1B         13.8400     9.1110     4.2410 hc         1 PBK       0.030700
     40 H2          11.6180     8.1650     4.7820 hc         1 PBK       0.039700
     41 H2A         11.6190     8.9130     3.1790 hc         1 PBK       0.039700
     42 H3          11.9580     6.6930     2.1440 hc         1 PBK       0.039700
     43 H3A         11.9590     5.9450     3.7470 hc         1 PBK       0.039700
     44 H4           9.6560     7.5110     2.5260 hc         1 PBK       0.040700
     45 H4A          9.6570     6.7630     4.1290 hc         1 PBK       0.040700
     46 H5           9.9970     5.2920     1.4900 hc         1 PBK       0.039700
     47 H5A          9.9980     4.5430     3.0930 hc         1 PBK       0.039700
     48 HN5         -2.9240   -11.2350     1.8330 hn         1 PBK       0.445800
     49 HN5A        -2.8010    -9.7240     2.6720 hn         1 PBK       0.445800
     50 H6           7.6950     5.3610     3.4750 hc         1 PBK       0.041200
     51 H6A          7.6940     6.1080     1.8720 hc         1 PBK       0.041200
     52 H7           8.0350     3.1410     2.4410 hc         1 PBK       0.038200
     53 H7A          8.0360     3.8880     0.8370 hc         1 PBK       0.038200
     54 HO7         -5.0590    -5.4630    -3.0890 ho         1 PBK       0.400000
     55 H8           5.7330     4.7060     1.2170 hc         1 PBK       0.043200
     56 H8A          5.7320     3.9590     2.8210 hc         1 PBK       0.043200
     57 HO8         -4.6010    -2.2080    -3.4560 ho         1 PBK       0.399000
     58 H9           6.0740     1.7390     1.7870 hc         1 PBK       0.035200
     59 H9A          6.0740     2.4860     0.1830 hc         1 PBK       0.035200
     60 H10          3.7710     2.5560     2.1680 hc         1 PBK       0.059200
     61 H10A         3.7710     3.3040     0.5660 hc         1 PBK       0.059200
     62 H11          4.1120     0.3360     1.1320 hc         1 PBK       0.057700
     63 H11A         4.1120     1.0850    -0.4710 hc         1 PBK       0.057700
     64 H13         -2.4630    -1.5900    -0.0790 h1         1 PBK       0.044200
     65 H13A        -2.3180    -0.7530    -1.6310 h1         1 PBK       0.044200
     66 H14         -1.4890    -2.8970    -2.6570 h1         1 PBK       0.083700
     67 H15         -4.2070    -2.6000    -1.3940 h1         1 PBK       0.052700
     68 H16         -4.4610    -4.8660    -1.1010 h1         1 PBK       0.049700
     69 H17         -1.7800    -5.4970    -2.3200 h2         1 PBK       0.106700
     70 H18         -2.3760    -5.0860     1.4090 h5         1 PBK       0.103800
     71 H21         -2.7800   -10.1970    -2.6160 h5         1 PBK       0.054100
@<TRIPOS>BOND
     1     1     7 1
     2     1    10 1
     3     1    13 1
     4     1    16 1
     5     2     5 1
     6     2    37 1
     7     2    38 1
     8     2    39 1
     9     3    31 1
    10     3    32 1
    11     3    34 1
    12     4    26 2
    13     5     8 1
    14     5    40 1
    15     5    41 1
    16     6    32 2
    17     6    33 1
    18     7    26 1
    19     8    11 1
    20     8    42 1
    21     8    43 1
    22     9    34 ar
    23     9    35 ar
    24    11    14 1
    25    11    44 1
    26    11    45 1
    27    12    35 ar
    28    12    36 ar
    29    14    17 1
    30    14    46 1
    31    14    47 1
    32    15    36 1
    33    15    48 1
    34    15    49 1
    35    16    27 1
    36    17    19 1
    37    17    50 1
    38    17    51 1
    39    18    28 1
    40    18    31 1
    41    19    21 1
    42    19    52 1
    43    19    53 1
    44    20    30 1
    45    20    54 1
    46    21    23 1
    47    21    55 1
    48    21    56 1
    49    22    29 1
    50    22    57 1
    51    23    24 1
    52    23    58 1
    53    23    59 1
    54    24    25 1
    55    24    60 1
    56    24    61 1
    57    25    26 1
    58    25    62 1
    59    25    63 1
    60    27    28 1
    61    27    64 1
    62    27    65 1
    63    28    29 1
    64    28    66 1
    65    29    30 1
    66    29    67 1
    67    30    31 1
    68    30    68 1
    69    31    69 1
    70    32    70 1
    71    33    34 ar
    72    33    36 ar
    73    35    71 1
@<TRIPOS>SUBSTRUCTURE
     1 PBK         1 TEMP              0 ****  ****    0 ROOT
