@<TRIPOS>MOLECULE
molecule
   21    20     1     0     0
SMALL
bcc


@<TRIPOS>ATOM
      1 C1           0.0000     0.0000     0.0000 c3         1 PBL      -0.092100
      2 C2           1.5300     0.0000     0.0000 c3         1 PBL       0.350600
      3 O2           2.0060     0.0000     1.3470 oh         1 PBL      -0.629050
      4 C3           2.0410    -1.2500    -0.7210 c3         1 PBL      -0.116400
      5 C4           1.4210    -2.4950    -0.0840 c3         1 PBL       0.350600
      6 O4           1.9930    -3.6650    -0.6710 oh         1 PBL      -0.629050
      7 C5           1.7000    -2.4900     1.4200 c3         1 PBL      -0.092100
      8 O2'          2.0070     1.1670    -0.6730 oh         1 PBL      -0.629050
      9 O4'          0.0090    -2.4910    -0.3070 oh         1 PBL      -0.629050
     10 H1          -0.3610     1.0140     0.1240 hc         1 PBL       0.057367
     11 H1A         -0.3610    -0.6140     0.8160 hc         1 PBL       0.057367
     12 H1B         -0.3610    -0.4000    -0.9400 hc         1 PBL       0.057367
     13 H3           3.1190    -1.3000    -0.6370 hc         1 PBL       0.067700
     14 H3A          1.7620    -1.2020    -1.7670 hc         1 PBL       0.067700
     15 H5           0.9650    -1.8730     1.9220 hc         1 PBL       0.057367
     16 H5A          2.6910    -2.0930     1.6030 hc         1 PBL       0.057367
     17 H5B          1.6410    -3.5030     1.8010 hc         1 PBL       0.057367
     18 HO2          2.1490     0.8880     1.6300 ho         1 PBL       0.409000
     19 HO4          1.6630    -3.7710    -1.5480 ho         1 PBL       0.409000
     20 HO2'         2.9290     1.2700    -0.5090 ho         1 PBL       0.409000
     21 HO4'        -0.2980    -3.3790    -0.3940 ho         1 PBL       0.409000
@<TRIPOS>BOND
     1     1     2 1
     2     2     3 1
     3     2     4 1
     4     2     8 1
     5     4     5 1
     6     5     6 1
     7     5     7 1
     8     5     9 1
     9     1    10 1
    10     1    11 1
    11     1    12 1
    12     4    13 1
    13     4    14 1
    14     7    15 1
    15     7    16 1
    16     7    17 1
    17     3    18 1
    18     6    19 1
    19     8    20 1
    20     9    21 1
@<TRIPOS>SUBSTRUCTURE
     1 PBL         1 TEMP              0 ****  ****    0 ROOT
