@<TRIPOS>MOLECULE
PBL
   21    20     1     0     0
SMALL
bcc


@<TRIPOS>ATOM
      1 C1         -0.0210    0.1590   -0.0080 c3        1 PBL     -0.106100
      2 C2          1.4970    0.0470   -0.0360 c3        1 PBL      0.349600
      3 O2          2.0880    0.1680    1.2460 oh        1 PBL     -0.632800
      4 C3          2.0070   -1.2490   -0.6720 c3        1 PBL     -0.111400
      5 C4          1.4640   -2.5410   -0.0570 c3        1 PBL      0.349600
      6 O4          2.0690   -3.6770   -0.6550 oh        1 PBL     -0.632800
      7 C5          1.6970   -2.6490    1.4430 c3        1 PBL     -0.106100
      8 O2'         1.9860    1.1790   -0.7360 oh        1 PBL     -0.632800
      9 O4'         0.1000   -2.6610   -0.4200 oh        1 PBL     -0.632800
     10 H1         -0.3250    1.1930    0.2780 hc        1 PBL      0.058700
     11 H1A        -0.4310   -0.0810   -1.0170 hc        1 PBL      0.058700
     12 H1B        -0.4250   -0.5750    0.7290 hc        1 PBL      0.058700
     13 H3          3.1240   -1.2840   -0.5850 hc        1 PBL      0.072700
     14 H3A         1.7280   -1.2160   -1.7580 hc        1 PBL      0.072700
     15 H5          1.0390   -1.9150    1.9660 hc        1 PBL      0.058700
     16 H5A         2.7610   -2.4090    1.6740 hc        1 PBL      0.058700
     17 H5B         1.4680   -3.6830    1.7940 hc        1 PBL      0.058700
     18 HO2         1.7290    0.9640    1.6550 ho        1 PBL      0.415000
     19 HO4         1.9180   -3.6230   -1.6070 ho        1 PBL      0.415000
     20 HO2'        2.9490    1.1230   -0.7500 ho        1 PBL      0.415000
     21 HO4'       -0.2430   -3.4560    0.0060 ho        1 PBL      0.415000
@<TRIPOS>BOND
     1    1    2 1   
     2    1   10 1   
     3    1   11 1   
     4    1   12 1   
     5    2    3 1   
     6    2    4 1   
     7    2    8 1   
     8    3   18 1   
     9    4    5 1   
    10    4   13 1   
    11    4   14 1   
    12    5    6 1   
    13    5    7 1   
    14    5    9 1   
    15    6   19 1   
    16    7   15 1   
    17    7   16 1   
    18    7   17 1   
    19    8   20 1   
    20    9   21 1   
@<TRIPOS>SUBSTRUCTURE
     1 PBL         1 TEMP              0 ****  ****    0 ROOT
