@<TRIPOS>MOLECULE
molecule
   27    27     1     0     0
SMALL
bcc


@<TRIPOS>ATOM
      1 C1           0.0000     0.0000     0.0000 c3         1 PBN       0.089800
      2 C2           1.5300     0.0000     0.0000 c3         1 PBN      -0.113400
      3 C3           2.0400     0.0000     1.4420 c3         1 PBN      -0.072400
      4 C4           3.5700    -0.0010     1.4430 c3         1 PBN      -0.026100
      5 C1'          4.0710    -0.0010     2.8630 ca         1 PBN      -0.107300
      6 C2'          4.3020    -1.1980     3.5130 ca         1 PBN      -0.122500
      7 C3'          4.7630    -1.1990     4.8160 ca         1 PBN      -0.118000
      8 C4'          4.9930    -0.0030     5.4680 ca         1 PBN      -0.113000
      9 C5'          4.7640     1.1940     4.8170 ca         1 PBN      -0.118000
     10 C6'          4.3070     1.1950     3.5130 ca         1 PBN      -0.122500
     11 N           -0.4900    -0.0000    -1.3850 nz         1 PBN      -0.811600
     12 H11         -0.3610     0.8850     0.5110 hx         1 PBN       0.113700
     13 H12         -0.3610    -0.8840     0.5110 hx         1 PBN       0.113700
     14 H21          1.8910    -0.8840    -0.5110 hc         1 PBN       0.064700
     15 H22          1.8910     0.8840    -0.5110 hc         1 PBN       0.064700
     16 H31          1.6780    -0.8840     1.9530 hc         1 PBN       0.061700
     17 H32          1.6790     0.8850     1.9520 hc         1 PBN       0.061700
     18 H41          3.9320     0.8830     0.9320 hc         1 PBN       0.053700
     19 H42          3.9300    -0.8860     0.9320 hc         1 PBN       0.053700
     20 H2'          4.1220    -2.1360     3.0020 ha         1 PBN       0.127000
     21 H3'          4.9430    -2.1370     5.3260 ha         1 PBN       0.140000
     22 H4'          5.3530    -0.0030     6.4900 ha         1 PBN       0.142000
     23 H5'          4.9470     2.1320     5.3280 ha         1 PBN       0.140000
     24 H6'          4.1270     2.1340     3.0030 ha         1 PBN       0.127000
     25 HN1         -0.1560    -0.8170    -1.8570 hn         1 PBN       0.456800
     26 HN2         -1.4910    -0.0000    -1.3850 hn         1 PBN       0.456800
     27 HN3         -0.1560     0.8170    -1.8570 hn         1 PBN       0.456800
@<TRIPOS>BOND
     1     1     2 1
     2     1    11 1
     3     1    12 1
     4     1    13 1
     5     2     3 1
     6     2    14 1
     7     2    15 1
     8     3     4 1
     9     3    16 1
    10     3    17 1
    11     4     5 1
    12     4    18 1
    13     4    19 1
    14     5     6 ar
    15     5    10 ar
    16     6     7 ar
    17     6    20 1
    18     7     8 ar
    19     7    21 1
    20     8     9 ar
    21     8    22 1
    22     9    10 ar
    23     9    23 1
    24    10    24 1
    25    11    25 1
    26    11    26 1
    27    27    11 1
@<TRIPOS>SUBSTRUCTURE
     1 PBN         1 TEMP              0 ****  ****    0 ROOT
