@<TRIPOS>MOLECULE
molecule
   22    22     1     0     0
SMALL
bcc


@<TRIPOS>ATOM
      1 C10          0.0000     0.0000     0.0000 c3         1 PBO      -0.094100
      2 C11          1.5290     0.0000     0.0000 c3         1 PBO      -0.073400
      3 C12          2.0410     0.0000     1.4420 c3         1 PBO      -0.179400
      4 C13          3.5470    -0.0000     1.4430 c          1 PBO       0.578700
      5 C14          4.2820    -0.0000     2.7160 ca         1 PBO      -0.304900
      6 C15          5.6850    -0.0000     2.7300 ca         1 PBO      -0.035000
      7 C16          6.3270    -0.0000     3.9550 ca         1 PBO      -0.268300
      8 C17          5.5740    -0.0010     5.1150 ca         1 PBO       0.444200
      9 N1'          4.2550    -0.0010     5.0730 nb         1 PBO      -0.699000
     10 C18          3.5960     0.0040     3.9340 ca         1 PBO       0.455200
     11 O13          4.1530    -0.0000     0.3920 o          1 PBO      -0.525100
     12 H103        -0.3610    -0.0000    -1.0210 hc         1 PBO       0.034367
     13 H101        -0.3610     0.8850     0.5110 hc         1 PBO       0.034367
     14 H102        -0.3610    -0.8840     0.5110 hc         1 PBO       0.034367
     15 H111         1.8900     0.8840    -0.5110 hc         1 PBO       0.054700
     16 H112         1.8900    -0.8840    -0.5110 hc         1 PBO       0.054700
     17 H121         1.6800    -0.8840     1.9530 hc         1 PBO       0.065700
     18 H122         1.6800     0.8840     1.9530 hc         1 PBO       0.065700
     19 H15          6.2500     0.0010     1.8060 ha         1 PBO       0.160000
     20 H16          7.4090    -0.0000     4.0060 ha         1 PBO       0.144000
     21 H17          6.0760    -0.0030     6.0750 h4         1 PBO       0.026100
     22 H18          2.5130     0.0040     3.9400 h4         1 PBO       0.027100
@<TRIPOS>BOND
     1     1     2 1
     2     1    12 1
     3     1    13 1
     4     1    14 1
     5     2     3 1
     6     2    15 1
     7     2    16 1
     8     3     4 1
     9     3    17 1
    10     3    18 1
    11     4     5 1
    12     4    11 2
    13     5     6 ar
    14     5    10 ar
    15     6     7 ar
    16     6    19 1
    17     7     8 ar
    18     7    20 1
    19     8     9 ar
    20     8    21 1
    21     9    10 ar
    22    10    22 1
@<TRIPOS>SUBSTRUCTURE
     1 PBO         1 TEMP              0 ****  ****    0 ROOT
