@<TRIPOS>MOLECULE
molecule
   17    17     1     0     0
SMALL
bcc


@<TRIPOS>ATOM
      1 CH           0.0000     0.0000     0.0000 c3         1 PBP      -0.191100
      2 CG           2.2420     0.0010    -1.2740 ca         1 PBP      -0.168600
      3 CD1          3.6410     0.0020    -1.2780 ca         1 PBP      -0.079500
      4 CE1          4.3220     0.0030    -2.4750 ca         1 PBP      -0.118000
      5 CD2          1.5460    -0.0030    -2.4870 ca         1 PBP      -0.079500
      6 CE2          2.2420     0.0030    -3.6760 ca         1 PBP      -0.118000
      7 CZ           3.6260     0.0030    -3.6730 ca         1 PBP       0.006100
      8 Br           4.5730     0.0040    -5.3100 br         1 PBP      -0.087100
      9 CR           1.5060     0.0000     0.0000 c          1 PBP       0.573700
     10 O            2.1130     0.0000     1.0500 o          1 PBP      -0.523100
     11 HH1         -0.3610     0.0010     1.0210 hc         1 PBP       0.062700
     12 HH2         -0.3610     0.8840    -0.5120 hc         1 PBP       0.062700
     13 HH3         -0.3610    -0.8850    -0.5100 hc         1 PBP       0.062700
     14 HD1          4.1860     0.0030    -0.3420 ha         1 PBP       0.150000
     15 HE1          5.4060     0.0030    -2.4790 ha         1 PBP       0.148500
     16 HD2          0.4630    -0.0030    -2.4920 ha         1 PBP       0.150000
     17 HE2          1.7050     0.0010    -4.6170 ha         1 PBP       0.148500
@<TRIPOS>BOND
     1     1     9 1
     2     1    11 1
     3     1    12 1
     4     1    13 1
     5     2     3 ar
     6     2     5 ar
     7     2     9 1
     8     3     4 ar
     9     3    14 1
    10     4     7 ar
    11     4    15 1
    12     5     6 ar
    13     5    16 1
    14     6     7 ar
    15     6    17 1
    16     7     8 1
    17     9    10 2
@<TRIPOS>SUBSTRUCTURE
     1 PBP         1 TEMP              0 ****  ****    0 ROOT
