@<TRIPOS>MOLECULE
PBP
   17    17     1     0     0
SMALL
bcc


@<TRIPOS>ATOM
      1 CH          0.0230   -0.0010   -0.0010 c3        1 PBP     -0.198100
      2 CG          2.2270    0.0010   -1.2710 ca        1 PBP     -0.164600
      3 CD1         3.6280    0.0030   -1.2780 ca        1 PBP     -0.083500
      4 CE1         4.3310    0.0030   -2.4810 ca        1 PBP     -0.119500
      5 CD2         1.5380    0.0000   -2.4890 ca        1 PBP     -0.083500
      6 CE2         2.2370    0.0010   -3.6940 ca        1 PBP     -0.119500
      7 CZ          3.6350    0.0030   -3.6940 ca        1 PBP     -0.001900
      8 BR          4.5730    0.0040   -5.3140 br        1 PBP     -0.078100
      9 CR          1.5180    0.0000    0.0290 c         1 PBP      0.575700
     10 O           2.1390    0.0010    1.1010 o         1 PBP     -0.530100
     11 HH1        -0.3470   -0.9110   -0.5320 hc        1 PBP      0.066033
     12 HH2        -0.3850   -0.0010    1.0400 hc        1 PBP      0.066033
     13 HH3        -0.3490    0.9080   -0.5330 hc        1 PBP      0.066033
     14 HD1         4.1700    0.0030   -0.3170 ha        1 PBP      0.151500
     15 HE1         5.4320    0.0040   -2.4670 ha        1 PBP      0.151500
     16 HD2         0.4370   -0.0010   -2.5090 ha        1 PBP      0.151500
     17 HE2         1.6800    0.0010   -4.6440 ha        1 PBP      0.151500
@<TRIPOS>BOND
     1    1    9 1   
     2    1   11 1   
     3    1   12 1   
     4    1   13 1   
     5    2    3 ar  
     6    2    5 ar  
     7    2    9 1   
     8    3    4 ar  
     9    3   14 1   
    10    4    7 ar  
    11    4   15 1   
    12    5    6 ar  
    13    5   16 1   
    14    6    7 ar  
    15    6   17 1   
    16    7    8 1   
    17    9   10 2   
@<TRIPOS>SUBSTRUCTURE
     1 PBP         1 TEMP              0 ****  ****    0 ROOT
