@<TRIPOS>MOLECULE
molecule
   21    22     1     0     0
SMALL
bcc


@<TRIPOS>ATOM
      1 CH           0.0000     0.0000     0.0000 ca         1 PBQ      -0.071900
      2 CG           2.0640     0.0000     1.2390 ca         1 PBQ      -0.029000
      3 CD1          3.5020     0.3690     1.3010 cc         1 PBQ      -0.020300
      4 CD2          1.3370     0.0620     2.4340 ca         1 PBQ      -0.060000
      5 CE2         -0.0630     0.0690     2.4100 ca         1 PBQ      -0.033900
      6 CR           1.4060     0.0000     0.0000 ca         1 PBQ       0.144100
      7 O            2.1090     0.0150    -1.1630 oh         1 PBQ      -0.520100
      8 C3          -0.7310     0.0270     1.1900 ca         1 PBQ      -0.052000
      9 C7           5.2710     1.6290     0.6460 cc         1 PBQ      -0.031200
     10 C8           5.4820     1.2650     1.9640 cd         1 PBQ      -0.036900
     11 C9           4.3680     0.4890     2.3780 cd         1 PBQ      -0.062900
     12 N11          4.0670     1.0920     0.2800 na         1 PBQ      -0.120100
     13 Br13        -1.0360     0.1300     4.0310 br         1 PBQ      -0.065100
     14 Br14        -0.9510    -0.0190    -1.6380 br         1 PBQ      -0.073100
     15 Br17         4.0690    -0.1750     4.1140 br         1 PBQ      -0.044100
     16 Br18         6.9670     1.7470     3.0210 br         1 PBQ      -0.035100
     17 Br19         6.3480     2.6660    -0.4880 br         1 PBQ      -0.008100
     18 H3          -1.8140     0.0300     1.1630 ha         1 PBQ       0.165000
     19 HD2          1.8600     0.0940     3.3820 ha         1 PBQ       0.181000
     20 H11          3.6580     1.1970    -0.6280 hn         1 PBQ       0.328700
     21 H            1.8890    -0.7470    -1.6730 ho         1 PBQ       0.446000
@<TRIPOS>BOND
     1     1     6 ar
     2     1     8 ar
     3     1    14 1
     4     2     3 1
     5     2     4 ar
     6     2     6 ar
     7     3    11 2
     8     3    12 1
     9     4     5 ar
    10     5     8 ar
    11     5    13 1
    12     6     7 1
    13     9    10 2
    14     9    12 1
    15     9    17 1
    16    10    11 1
    17    10    16 1
    18    11    15 1
    19     8    18 1
    20     4    19 1
    21    12    20 1
    22     7    21 1
@<TRIPOS>SUBSTRUCTURE
     1 PBQ         1 TEMP              0 ****  ****    0 ROOT
