@<TRIPOS>MOLECULE
PBQ
   21    22     1     0     0
SMALL
bcc


@<TRIPOS>ATOM
      1 CH          0.0220   -0.3570    0.0410 ca        1 PBQ     -0.118900
      2 CG          1.9920    0.4350    1.2620 ca        1 PBQ     -0.058000
      3 CD1         3.4060    0.7640    1.3260 cc        1 PBQ     -0.009300
      4 CD2         1.2080    0.5420    2.4150 ca        1 PBQ     -0.030000
      5 CE2        -0.1450    0.1930    2.3930 ca        1 PBQ     -0.066900
      6 CR          1.3840    0.0010    0.0590 ca        1 PBQ      0.179100
      7 O           2.1810   -0.0240   -1.0560 oh        1 PBQ     -0.500100
      8 C3         -0.7320   -0.2620    1.2120 ca        1 PBQ     -0.031000
      9 C7          5.3880    1.6760    0.7030 cc        1 PBQ     -0.045200
     10 C8          5.6090    1.0030    1.9220 cd        1 PBQ     -0.053900
     11 C9          4.3560    0.4200    2.3170 cd        1 PBQ     -0.077900
     12 N11         4.0480    1.5390    0.3620 na        1 PBQ     -0.123100
     13 BR13       -1.1710    0.3360    3.9500 br        1 PBQ     -0.063100
     14 BR14       -0.8200   -0.9660   -1.5200 br        1 PBQ     -0.067100
     15 BR17        4.1120   -0.6050    3.8150 br        1 PBQ     -0.023100
     16 BR18        7.1920    0.8940    2.8280 br        1 PBQ     -0.012100
     17 BR19        6.6010    2.6180   -0.3150 br        1 PBQ     -0.004100
     18 H3         -1.7990   -0.5450    1.2000 ha        1 PBQ      0.166000
     19 HD2         1.6730    0.9070    3.3480 ha        1 PBQ      0.172000
     20 H11         3.6370    1.8100   -0.4990 hn        1 PBQ      0.321700
     21 H           1.6970   -0.4610   -1.7780 ho        1 PBQ      0.444000
@<TRIPOS>BOND
     1    1    6 ar  
     2    1    8 ar  
     3    1   14 1   
     4    2    3 1   
     5    2    4 ar  
     6    2    6 ar  
     7    3   11 2   
     8    3   12 1   
     9    4    5 ar  
    10    4   19 1   
    11    5    8 ar  
    12    5   13 1   
    13    6    7 1   
    14    7   21 1   
    15    8   18 1   
    16    9   10 2   
    17    9   12 1   
    18    9   17 1   
    19   10   11 1   
    20   10   16 1   
    21   11   15 1   
    22   12   20 1   
@<TRIPOS>SUBSTRUCTURE
     1 PBQ         1 TEMP              0 ****  ****    0 ROOT
