@<TRIPOS>MOLECULE
molecule
   13    13     1     0     0
SMALL
bcc


@<TRIPOS>ATOM
      1 Br1          0.0000     0.0000     0.0000 br         1 PBR      -0.029100
      2 Br2          1.6380     0.0000     2.8340 br         1 PBR      -0.023100
      3 Br3          4.9100    -0.0030     2.8350 br         1 PBR      -0.025100
      4 Br4          6.5500    -0.0040     0.0030 br         1 PBR      -0.023100
      5 Br5          4.9190    -0.0080    -2.8350 br         1 PBR      -0.029100
      6 O1           1.9050    -0.0000    -2.3800 oh         1 PBR      -0.493100
      7 C1           1.8910     0.0000     0.0000 ca         1 PBR      -0.024900
      8 C2           2.5820     0.0000     1.1960 ca         1 PBR       0.033100
      9 C3           3.9660    -0.0020     1.1960 ca         1 PBR       0.003100
     10 C4           4.6600    -0.0020    -0.0010 ca         1 PBR       0.033100
     11 C5           3.9720    -0.0060    -1.1990 ca         1 PBR      -0.024900
     12 C6           2.5840    -0.0000    -1.2020 ca         1 PBR       0.165100
     13 H1           1.7490     0.8890    -2.6530 ho         1 PBR       0.438000
@<TRIPOS>BOND
     1     1     7 1
     2     2     8 1
     3     3     9 1
     4     4    10 1
     5     5    11 1
     6     6    12 1
     7     6    13 1
     8     7     8 ar
     9     7    12 ar
    10     8     9 ar
    11     9    10 ar
    12    10    11 ar
    13    11    12 ar
@<TRIPOS>SUBSTRUCTURE
     1 PBR         1 TEMP              0 ****  ****    0 ROOT
