@<TRIPOS>MOLECULE
PBR
   13    13     1     0     0
SMALL
bcc


@<TRIPOS>ATOM
      1 BR1         0.0500    0.2670   -0.0510 br        1 PBR     -0.026600
      2 BR2         1.6440    0.0960    2.7790 br        1 PBR     -0.015600
      3 BR3         4.8990   -0.1170    2.8300 br        1 PBR     -0.020100
      4 BR4         6.5840   -0.1600    0.0440 br        1 PBR     -0.015600
      5 BR5         5.0620    0.0070   -2.8140 br        1 PBR     -0.026600
      6 O1          2.0510    0.1950   -2.4790 oh        1 PBR     -0.466100
      7 C1          1.9190    0.1450   -0.0450 ca        1 PBR     -0.070400
      8 C2          2.6020    0.0720    1.1750 ca        1 PBR      0.053100
      9 C3          3.9980   -0.0190    1.1990 ca        1 PBR     -0.036900
     10 C4          4.7200   -0.0380   -0.0040 ca        1 PBR      0.053100
     11 C5          4.0590    0.0350   -1.2350 ca        1 PBR     -0.070400
     12 C6          2.6490    0.1270   -1.2500 ca        1 PBR      0.198100
     13 H1          1.0870    0.2550   -2.3560 ho        1 PBR      0.442000
@<TRIPOS>BOND
     1    1    7 1   
     2    2    8 1   
     3    3    9 1   
     4    4   10 1   
     5    5   11 1   
     6    6   12 1   
     7    6   13 1   
     8    7    8 ar  
     9    7   12 ar  
    10    8    9 ar  
    11    9   10 ar  
    12   10   11 ar  
    13   11   12 ar  
@<TRIPOS>SUBSTRUCTURE
     1 PBR         1 TEMP              0 ****  ****    0 ROOT
