@<TRIPOS>MOLECULE
PBS
  105   105     1     0     0
SMALL
bcc


@<TRIPOS>ATOM
      1 C17          0.0000     0.0000     0.0000 c3         1 PBS       0.005900
      2 C16          1.5300     0.0000     0.0000 c3         1 PBS      -0.028400
      3 C15          2.0390     0.0000     1.4430 c3         1 PBS      -0.030400
      4 C14          3.5700     0.0000     1.4420 c3         1 PBS      -0.029400
      5 C13          4.0800     0.0000     2.8850 c3         1 PBS      -0.029400
      6 C12          5.6100     0.0000     2.8850 c3         1 PBS      -0.029400
      7 C11          6.1190     0.0000     4.3280 c3         1 PBS      -0.029400
      8 C10          7.6490     0.0000     4.3280 c3         1 PBS      -0.029400
      9 C9           8.1590     0.0000     5.7710 c3         1 PBS      -0.029400
     10 C8           9.6890     0.0000     5.7710 c3         1 PBS      -0.029400
     11 C7          10.1990     0.0000     7.2130 c3         1 PBS      -0.029400
     12 C6          11.7290     0.0000     7.2130 c3         1 PBS      -0.027400
     13 C5          12.2390     0.0000     8.6570 c3         1 PBS      -0.029400
     14 C4          13.7690     0.0000     8.6570 c3         1 PBS      -0.061400
     15 C3          14.2780     0.0000    10.0990 c3         1 PBS       0.164100
     16 O32         13.9000    -1.2210    10.7380 oh         1 PBS      -0.598800
     17 C2          15.8030     0.1260    10.1010 c3         1 PBS       0.171100
     18 O1          16.1810     1.3470     9.4630 oh         1 PBS      -0.577800
     19 C1          16.3130     0.1260    11.5430 c3         1 PBS       0.007700
     20 N           16.0410    -1.1760    12.1580 ns         1 PBS      -0.179900
     21 C18         15.9210    -1.2780    13.4960 c          1 PBS       0.572100
     22 O2          16.0380    -0.2930    14.1930 o          1 PBS      -0.653100
     23 C19         15.6410    -2.6180    14.1270 c3         1 PBS      -0.094400
     24 C20         15.5530    -2.4580    15.6460 c3         1 PBS      -0.016400
     25 C21         15.2700    -3.8180    16.2870 c3         1 PBS      -0.032400
     26 C22         15.1810    -3.6570    17.8050 c3         1 PBS      -0.027400
     27 C23         14.8970    -5.0180    18.4460 c3         1 PBS      -0.030400
     28 C24         14.8090    -4.8570    19.9660 c3         1 PBS      -0.028400
     29 C25         14.5250    -6.2170    20.6060 c3         1 PBS       0.005900
     30 C           17.8200     0.3890    11.5520 c3         1 PBS       0.164400
     31 OC1         18.4760    -0.5750    10.7260 os         1 PBS      -0.422600
     32 CG1         19.8740    -0.2770    10.7750 c3         1 PBS       0.356900
     33 OG          20.3800    -0.5890    12.0720 os         1 PBS      -0.377600
     34 CG          20.0040    -1.9320    12.3700 c3         1 PBS       0.138100
     35 CG5         20.3590    -2.2490    13.8240 c3         1 PBS       0.220400
     36 OG6         19.5740    -1.4320    14.6950 oh         1 PBS      -0.579800
     37 CG4         20.7480    -2.8970    11.4450 c3         1 PBS       0.141100
     38 OG5         22.1570    -2.7270    11.6100 oh         1 PBS      -0.563800
     39 CG3         20.3610    -2.5950     9.9920 c3         1 PBS       0.158100
     40 OG4         21.1580    -3.3870     9.1090 oh         1 PBS      -0.576800
     41 CG2         20.6080    -1.1080     9.7190 c3         1 PBS       0.152100
     42 OG3         20.1170    -0.7720     8.4210 oh         1 PBS      -0.577800
     43 H171        -0.3610    -0.8900     0.5020 hc         1 PBS       0.000033
     44 H172        -0.3610     0.0100    -1.0210 hc         1 PBS       0.000033
     45 H173        -0.3610     0.8790     0.5200 hc         1 PBS       0.000033
     46 H161         1.8910     0.8850    -0.5110 hc         1 PBS       0.011700
     47 H162         1.8910    -0.8850    -0.5110 hc         1 PBS       0.011700
     48 H151         1.6780    -0.8850     1.9530 hc         1 PBS       0.014700
     49 H152         1.6780     0.8840     1.9530 hc         1 PBS       0.014700
     50 H141         3.9310    -0.8840     0.9310 hc         1 PBS       0.014700
     51 H142         3.9300     0.8850     0.9310 hc         1 PBS       0.014700
     52 H131         3.7190    -0.8840     3.3960 hc         1 PBS       0.014700
     53 H132         3.7190     0.8850     3.3960 hc         1 PBS       0.014700
     54 H121         5.9710    -0.8840     2.3750 hc         1 PBS       0.014700
     55 H122         5.9710     0.8850     2.3750 hc         1 PBS       0.014700
     56 H111         5.7580    -0.8840     4.8390 hc         1 PBS       0.014700
     57 H112         5.7580     0.8850     4.8390 hc         1 PBS       0.014700
     58 H101         8.0100     0.8850     3.8170 hc         1 PBS       0.014700
     59 H102         8.0100    -0.8840     3.8170 hc         1 PBS       0.014700
     60 H91          7.7980     0.8840     6.2820 hc         1 PBS       0.014700
     61 H92          7.7980    -0.8850     6.2820 hc         1 PBS       0.014700
     62 H81         10.0500     0.8850     5.2600 hc         1 PBS       0.014700
     63 H82         10.0510    -0.8840     5.2600 hc         1 PBS       0.014700
     64 H71          9.8380    -0.8840     7.7240 hc         1 PBS       0.014700
     65 H72          9.8380     0.8850     7.7240 hc         1 PBS       0.014700
     66 H61         12.0900    -0.8840     6.7030 hc         1 PBS       0.015700
     67 H62         12.0900     0.8850     6.7030 hc         1 PBS       0.015700
     68 H51         11.8780    -0.8840     9.1670 hc         1 PBS       0.015200
     69 H52         11.8780     0.8850     9.1670 hc         1 PBS       0.015200
     70 H41         14.1300    -0.8840     8.1460 hc         1 PBS       0.028200
     71 H42         14.1300     0.8850     8.1460 hc         1 PBS       0.028200
     72 H3          13.8460     0.8370    10.6350 h1         1 PBS       0.018700
     73 H32         13.0900    -1.0950    11.2040 ho         1 PBS       0.399000
     74 H2          16.2350    -0.7100     9.5650 h1         1 PBS       0.026700
     75 HO1         16.5530     1.1580     8.6170 ho         1 PBS       0.399000
     76 H1          15.8080     0.9030    12.1050 h1         1 PBS       0.067700
     77 HN          15.9220    -1.9860    11.5820 hn         1 PBS       0.187500
     78 H191        14.7030    -3.0060    13.7500 hc         1 PBS       0.024200
     79 H192        16.4410    -3.3070    13.8820 hc         1 PBS       0.024200
     80 H201        14.7530    -1.7690    15.8910 hc         1 PBS       0.031700
     81 H202        16.4920    -2.0690    16.0240 hc         1 PBS       0.031700
     82 H211        16.0700    -4.5060    16.0420 hc         1 PBS       0.010200
     83 H212        14.3320    -4.2060    15.9090 hc         1 PBS       0.010200
     84 H221        14.3810    -2.9690    18.0490 hc         1 PBS       0.016700
     85 H222        16.1190    -3.2690    18.1830 hc         1 PBS       0.016700
     86 H231        13.9580    -5.4060    18.0690 hc         1 PBS       0.013200
     87 H232        15.6970    -5.7060    18.2020 hc         1 PBS       0.013200
     88 H241        14.0080    -4.1680    20.2100 hc         1 PBS       0.012700
     89 H242        15.7470    -4.4680    20.3430 hc         1 PBS       0.012700
     90 H251        14.4760    -6.1060    21.6830 hc         1 PBS      -0.000633
     91 H252        13.5800    -6.5990    20.2390 hc         1 PBS      -0.000633
     92 H253        15.3180    -6.9090    20.3500 hc         1 PBS      -0.000633
     93 H1A         18.0160     1.3840    11.1700 h1         1 PBS       0.030200
     94 H2A         18.1950     0.3120    12.5650 h1         1 PBS       0.030200
     95 HG1         20.0290     0.7760    10.5740 h2         1 PBS       0.033700
     96 HG          18.9370    -2.0460    12.2220 h1         1 PBS       0.047700
     97 HG51        21.4100    -2.0470    13.9910 h1         1 PBS      -0.004300
     98 HG52        20.1550    -3.2930    14.0260 h1         1 PBS      -0.004300
     99 HG6         19.9920    -1.3790    15.5380 ho         1 PBS       0.391000
    100 HG4         20.4700    -3.9160    11.6870 h1         1 PBS       0.005700
    101 HG5         22.5650    -3.5710    11.7210 ho         1 PBS       0.389000
    102 HG3         19.3110    -2.8200     9.8440 h1         1 PBS       0.025700
    103 H4          20.6330    -4.0840     8.7530 ho         1 PBS       0.389000
    104 HG2         21.6700    -0.9030     9.7750 h1         1 PBS       0.041700
    105 H5          20.8070    -0.3720     7.9180 ho         1 PBS       0.393000
@<TRIPOS>BOND
     1     1     2 1   
     2     1    43 1   
     3     1    44 1   
     4     1    45 1   
     5     2     3 1   
     6     2    46 1   
     7     2    47 1   
     8     3     4 1   
     9     3    48 1   
    10     3    49 1   
    11     4     5 1   
    12     4    50 1   
    13     4    51 1   
    14     5     6 1   
    15     5    52 1   
    16     5    53 1   
    17     6     7 1   
    18     6    54 1   
    19     6    55 1   
    20     7     8 1   
    21     7    56 1   
    22     7    57 1   
    23     8     9 1   
    24     8    58 1   
    25     8    59 1   
    26     9    10 1   
    27     9    60 1   
    28     9    61 1   
    29    10    11 1   
    30    10    62 1   
    31    10    63 1   
    32    11    12 1   
    33    11    64 1   
    34    11    65 1   
    35    12    13 1   
    36    12    66 1   
    37    12    67 1   
    38    13    14 1   
    39    13    68 1   
    40    13    69 1   
    41    14    15 1   
    42    14    70 1   
    43    14    71 1   
    44    15    16 1   
    45    15    17 1   
    46    15    72 1   
    47    16    73 1   
    48    17    18 1   
    49    17    19 1   
    50    17    74 1   
    51    18    75 1   
    52    19    20 1   
    53    19    30 1   
    54    19    76 1   
    55    20    21 1   
    56    20    77 1   
    57    21    22 2   
    58    21    23 1   
    59    23    24 1   
    60    23    78 1   
    61    23    79 1   
    62    24    25 1   
    63    24    80 1   
    64    24    81 1   
    65    25    26 1   
    66    25    82 1   
    67    25    83 1   
    68    26    27 1   
    69    26    84 1   
    70    26    85 1   
    71    27    28 1   
    72    27    86 1   
    73    27    87 1   
    74    28    29 1   
    75    28    88 1   
    76    28    89 1   
    77    29    90 1   
    78    29    91 1   
    79    29    92 1   
    80    30    31 1   
    81    30    93 1   
    82    30    94 1   
    83    31    32 1   
    84    32    33 1   
    85    32    41 1   
    86    32    95 1   
    87    33    34 1   
    88    34    35 1   
    89    34    37 1   
    90    34    96 1   
    91    35    36 1   
    92    35    97 1   
    93    35    98 1   
    94    36    99 1   
    95    37    38 1   
    96    37    39 1   
    97    37   100 1   
    98    38   101 1   
    99    39    40 1   
   100    39    41 1   
   101    39   102 1   
   102    40   103 1   
   103    41    42 1   
   104    41   104 1   
   105    42   105 1   
@<TRIPOS>SUBSTRUCTURE
     1 PBS         1 TEMP              0 ****  ****    0 ROOT
