@<TRIPOS>MOLECULE
PBX
   15    15     1     0     0
SMALL
bcc


@<TRIPOS>ATOM
      1 BR          0.0340    0.0310    0.1380 br        1 PBX     -0.081100
      2 C4          1.9040    0.0390    0.0410 ca        1 PBX     -0.113900
      3 C3          2.7010    0.0720    1.1960 ca        1 PBX      0.117100
      4 O3          2.2250    0.1000    2.4860 oh        1 PBX     -0.511100
      5 C2          4.1060    0.0770    1.0850 ca        1 PBX      0.015100
      6 O2          4.9520    0.1080    2.1730 oh        1 PBX     -0.512100
      7 C1          4.7070    0.0500   -0.1880 ca        1 PBX      0.153100
      8 O1          6.0660    0.0530   -0.3620 oh        1 PBX     -0.486100
      9 C6          3.9050    0.0170   -1.3390 ca        1 PBX     -0.166000
     10 C5          2.5220    0.0130   -1.2150 ca        1 PBX     -0.065000
     11 H1          1.2540    0.0930    2.4550 ho        1 PBX      0.445000
     12 H2          4.4070    0.1220    2.9750 ho        1 PBX      0.449000
     13 H3          6.4840    0.0760    0.5140 ho        1 PBX      0.443000
     14 H4          4.3860   -0.0040   -2.3280 ha        1 PBX      0.161000
     15 H5          1.9030   -0.0130   -2.1270 ha        1 PBX      0.153000
@<TRIPOS>BOND
     1    1    2 1   
     2    2    3 ar  
     3    2   10 ar  
     4    3    4 1   
     5    3    5 ar  
     6    4   11 1   
     7    5    6 1   
     8    5    7 ar  
     9    6   12 1   
    10    7    8 1   
    11    7    9 ar  
    12    8   13 1   
    13    9   10 ar  
    14    9   14 1   
    15   10   15 1   
@<TRIPOS>SUBSTRUCTURE
     1 PBX         1 TEMP              0 ****  ****    0 ROOT
