@<TRIPOS>MOLECULE
molecule
   15    15     1     0     0
SMALL
bcc


@<TRIPOS>ATOM
      1 Br           0.0000     0.0000     0.0000 br         1 PBX      -0.074100
      2 C4           1.8910     0.0000     0.0000 ca         1 PBX      -0.055900
      3 C3           2.5840     0.0000     1.2020 ca         1 PBX       0.118100
      4 O3           1.9030    -0.0000     2.3800 oh         1 PBX      -0.503100
      5 C2           3.9740    -0.0000     1.2010 ca         1 PBX       0.073100
      6 O2           4.6560    -0.0010     2.3780 oh         1 PBX      -0.504100
      7 C1           4.6630    -0.0010    -0.0050 ca         1 PBX       0.108100
      8 O1           6.0240    -0.0020    -0.0110 oh         1 PBX      -0.510100
      9 C6           3.9650    -0.0010    -1.2020 ca         1 PBX      -0.163000
     10 C5           2.5820    -0.0050    -1.1980 ca         1 PBX      -0.084000
     11 H1           1.6180     0.8760     2.5790 ho         1 PBX       0.433000
     12 H2           4.7960    -0.8900     2.6610 ho         1 PBX       0.433000
     13 H3           6.3380     0.8600    -0.2310 ho         1 PBX       0.428000
     14 H4           4.5030    -0.0030    -2.1420 ha         1 PBX       0.150000
     15 H5           2.0390    -0.0050    -2.1350 ha         1 PBX       0.151000
@<TRIPOS>BOND
     1     9    10 ar
     2     9     7 ar
     3     8     7 1
     4    10     2 ar
     5     7     5 ar
     6     2     3 ar
     7     2     1 1
     8     5     3 ar
     9     5     6 1
    10     3     4 1
    11     4    11 1
    12     6    12 1
    13     8    13 1
    14     9    14 1
    15    10    15 1
@<TRIPOS>SUBSTRUCTURE
     1 PBX         1 TEMP              0 ****  ****    0 ROOT
