@<TRIPOS>MOLECULE
molecule
   21    21     1     0     0
SMALL
bcc


@<TRIPOS>ATOM
      1 N2           0.0000     0.0000     0.0000 nz         1 PBZ      -0.782600
      2 N3           2.0000    -0.0020    -1.1550 nv         1 PBZ      -0.360100
      3 C7           1.3340     0.0000     0.0000 ce         1 PBZ       0.480800
      4 C4           2.0720     0.0000     1.2790 ca         1 PBZ      -0.288900
      5 C2           2.2060     0.6060     3.5990 ca         1 PBZ      -0.131000
      6 C3           1.5180     0.6120     2.4070 ca         1 PBZ      -0.045000
      7 C5           3.3290    -0.6050     1.3620 ca         1 PBZ      -0.045000
      8 C6           4.0150    -0.6030     2.5550 ca         1 PBZ      -0.131000
      9 C1           3.4580     0.0020     3.6790 ca         1 PBZ       0.365600
     10 N1           4.1530     0.0030     4.8830 nv         1 PBZ      -0.994200
     11 HN21        -0.3340    -0.3540    -0.8740 hn         1 PBZ       0.508800
     12 HN22        -0.3340     0.9340     0.1300 hn         1 PBZ       0.508800
     13 HN31         3.0010    -0.0020    -1.1560 hn         1 PBZ       0.362200
     14 HN32         1.5000    -0.0030    -2.0220 hn         1 PBZ       0.362200
     15 H2           1.7760     1.0780     4.4740 ha         1 PBZ       0.205500
     16 H3           0.5440     1.0820     2.3450 ha         1 PBZ       0.148500
     17 H5           3.7630    -1.0750     0.4880 ha         1 PBZ       0.148500
     18 H6           4.9890    -1.0720     2.6200 ha         1 PBZ       0.205500
     19 HN11         4.0270    -0.7470     5.5350 hn         1 PBZ       0.485800
     20 HN12         4.7800     0.7530     5.0990 hn         1 PBZ       0.485800
     21 H23         -0.3340    -0.5660     0.7550 hn         1 PBZ       0.508800
@<TRIPOS>BOND
     1     1     3 1
     2     1    11 1
     3     1    12 1
     4     2     3 2
     5     2    13 1
     6     2    14 1
     7     3     4 1
     8     4     6 ar
     9     4     7 ar
    10     5     6 ar
    11     5     9 ar
    12     5    15 1
    13     6    16 1
    14     7     8 ar
    15     7    17 1
    16     8     9 ar
    17     8    18 1
    18     9    10 1
    19    10    19 1
    20    10    20 1
    21    21     1 1
@<TRIPOS>SUBSTRUCTURE
     1 PBZ         1 TEMP              0 ****  ****    0 ROOT
