@<TRIPOS>MOLECULE
PBZ
   21    21     1     0     0
SMALL
bcc


@<TRIPOS>ATOM
      1 N2           0.0000     0.0000     0.0000 nz         1 PBZ       0.164400
      2 N3           2.0000    -0.0020    -1.1550 nv         1 PBZ       0.338900
      3 C7           1.3340     0.0000     0.0000 ce         1 PBZ       0.014800
      4 C4           2.0720     0.0000     1.2790 ca         1 PBZ      -0.285900
      5 C2           2.2060     0.6060     3.5990 ca         1 PBZ      -0.095500
      6 C3           1.5180     0.6120     2.4070 ca         1 PBZ      -0.005500
      7 C5           3.3290    -0.6050     1.3620 ca         1 PBZ      -0.005500
      8 C6           4.0150    -0.6030     2.5550 ca         1 PBZ      -0.095500
      9 C1           3.4580     0.0020     3.6790 ca         1 PBZ       0.250600
     10 N1           4.1530     0.0030     4.8830 nv         1 PBZ      -0.571200
     11 HN21        -0.3340    -0.3540    -0.8750 hn         1 PBZ       0.254467
     12 HN22        -0.3340     0.9340     0.1300 hn         1 PBZ       0.254467
     13 HN31         1.5000    -0.0020    -2.0220 hn         1 PBZ       0.161200
     14 HN32         3.0010    -0.0020    -1.1560 hn         1 PBZ       0.161200
     15 H2           1.7760     1.0780     4.4740 ha         1 PBZ       0.162500
     16 H3           0.5440     1.0820     2.3450 ha         1 PBZ       0.109500
     17 H5           3.7630    -1.0750     0.4880 ha         1 PBZ       0.109500
     18 H6           4.9890    -1.0720     2.6200 ha         1 PBZ       0.162500
     19 HN11         4.7800     0.7530     5.0990 hn         1 PBZ       0.330800
     20 HN12         4.0270    -0.7470     5.5350 hn         1 PBZ       0.330800
     21 H23         -0.3340    -0.5920     0.7340 hn         1 PBZ       0.254467
@<TRIPOS>BOND
     1     1     3 1   
     2     1    11 1   
     3     1    12 1   
     4     1    21 1   
     5     2     3 2   
     6     2    13 1   
     7     2    14 1   
     8     3     4 1   
     9     4     6 ar  
    10     4     7 ar  
    11     5     6 ar  
    12     5     9 ar  
    13     5    15 1   
    14     6    16 1   
    15     7     8 ar  
    16     7    17 1   
    17     8     9 ar  
    18     8    18 1   
    19     9    10 1   
    20    10    19 1   
    21    10    20 1   
@<TRIPOS>SUBSTRUCTURE
     1 PBZ         1 TEMP              0 ****  ****    0 ROOT
