@<TRIPOS>MOLECULE
molecule
   24    23     1     0     0
SMALL
bcc


@<TRIPOS>ATOM
      1 P1           0.0000     0.0000     0.0000 p5         1 PC        1.086900
      2 O1           1.4790     0.0000     0.0000 o          1 PC       -0.872833
      3 O3          -0.5370     0.0000     1.5170 o          1 PC       -0.872833
      4 O4          -0.5370    -1.3160    -0.7590 o          1 PC       -0.872833
      5 O2          -0.5380     1.3140    -0.7610 os         1 PC       -0.543200
      6 C1           0.0640     2.4380    -0.1160 c3         1 PC        0.130400
      7 C2          -0.4070     3.7260    -0.7940 c3         1 PC        0.090800
      8 N1          -1.8400     3.9200    -0.5350 n4         1 PC       -0.562800
      9 C3          -2.0820     3.9040     0.9150 c3         1 PC        0.099100
     10 C4          -2.6030     2.8380    -1.1700 c3         1 PC        0.099100
     11 C5          -2.2670     5.2120    -1.0880 c3         1 PC        0.099100
     12 H11         -0.2250     2.4520     0.9280 h1         1 PC        0.080200
     13 H12          1.1420     2.3630    -0.1920 h1         1 PC        0.080200
     14 H21         -0.2400     3.6540    -1.8620 hx         1 PC        0.072200
     15 H22          0.1490     4.5670    -0.3970 hx         1 PC        0.072200
     16 H31         -1.2580     4.3900     1.4230 hx         1 PC        0.090478
     17 H32         -2.1630     2.8790     1.2560 hx         1 PC        0.090478
     18 H33         -3.0020     4.4320     1.1330 hx         1 PC        0.090478
     19 H41         -3.6260     3.1610    -1.3270 hx         1 PC        0.090478
     20 H42         -2.5950     1.9650    -0.5280 hx         1 PC        0.090478
     21 H43         -2.1530     2.5900    -2.1230 hx         1 PC        0.090478
     22 H51         -1.7130     6.0110    -0.6100 hx         1 PC        0.090478
     23 H52         -2.0780     5.2290    -2.1540 hx         1 PC        0.090478
     24 H53         -3.3260     5.3500    -0.9070 hx         1 PC        0.090478
@<TRIPOS>BOND
     1     1     2 1
     2     1     3 1
     3     1     4 1
     4     1     5 1
     5     5     6 1
     6     6     7 1
     7     6    12 1
     8     6    13 1
     9     7     8 1
    10     7    14 1
    11     7    15 1
    12     8     9 1
    13     8    10 1
    14     8    11 1
    15     9    16 1
    16     9    17 1
    17     9    18 1
    18    10    19 1
    19    10    20 1
    20    10    21 1
    21    11    22 1
    22    11    23 1
    23    11    24 1
@<TRIPOS>SUBSTRUCTURE
     1 PC          1 TEMP              0 ****  ****    0 ROOT
