@<TRIPOS>MOLECULE
PC1
  142   141     1     0     0
SMALL
bcc


@<TRIPOS>ATOM
      1 O12          0.0000     0.0000     0.0000 o          1 PC1      -0.611000
      2 P            1.5140     0.0000     0.0000 p5         1 PC1       0.930800
      3 O14          2.2780     0.0000     1.3070 o          1 PC1      -0.611000
      4 O13          2.0490    -1.2530    -0.9070 os         1 PC1      -0.468200
      5 C11          1.6920    -1.3200    -2.2770 c3         1 PC1       0.264400
      6 C12          2.3010    -2.5600    -2.9010 c3         1 PC1      -0.010200
      7 N            1.9530    -2.6030    -4.3440 n4         1 PC1      -0.058800
      8 C13          2.4650    -1.3490    -5.0650 c3         1 PC1       0.067433
      9 C14          2.5800    -3.8310    -5.0170 c3         1 PC1       0.067433
     10 C15          0.4330    -2.6780    -4.5350 c3         1 PC1       0.067433
     11 O11          2.0200     1.2540    -0.9180 os         1 PC1      -0.493200
     12 C1           3.4170     1.4740    -1.0800 c3         1 PC1       0.223400
     13 C2           3.6500     2.6890    -1.9690 c3         1 PC1       0.163100
     14 O21          3.0250     3.8250    -1.3690 os         1 PC1      -0.394900
     15 C21          3.4770     4.1570    -0.1220 c          1 PC1       0.716100
     16 O22          4.3530     3.5720     0.5020 o          1 PC1      -0.561000
     17 C22          2.7190     5.3690     0.3690 c3         1 PC1      -0.089400
     18 C23          3.1870     5.8150     1.7540 c3         1 PC1      -0.016400
     19 C24          2.4400     7.0670     2.2150 c3         1 PC1      -0.023400
     20 C25          2.9220     7.6010     3.5670 c3         1 PC1      -0.023400
     21 C26          2.2240     8.8950     3.9950 c3         1 PC1      -0.018400
     22 C27          2.7210     9.3630     5.3650 c3         1 PC1      -0.020400
     23 C28          2.0500    10.6510     5.8510 c3         1 PC1      -0.023400
     24 C29          2.4620    11.1360     7.2450 c3         1 PC1      -0.020400
     25 C2A          1.6970    12.3780     7.7100 c3         1 PC1      -0.019400
     26 C2B          2.1320    12.7990     9.1160 c3         1 PC1      -0.023400
     27 C2C          1.3780    14.0240     9.6440 c3         1 PC1      -0.021400
     28 C2D          1.8320    14.4600    11.0390 c3         1 PC1      -0.021400
     29 C2E          1.0870    15.6920    11.5620 c3         1 PC1      -0.023400
     30 C2F          1.5580    16.1450    12.9470 c3         1 PC1      -0.019400
     31 C2G          0.7320    17.3320    13.4480 c3         1 PC1      -0.025400
     32 C2H          1.1760    17.8420    14.8210 c3         1 PC1      -0.026400
     33 C2I          0.3420    19.0060    15.3350 c3         1 PC1       0.010900
     34 C3           3.0400     2.4930    -3.3510 c3         1 PC1       0.209400
     35 O31          3.2650     3.6710    -4.1310 os         1 PC1      -0.399900
     36 C31          2.7680     3.6400    -5.4030 c          1 PC1       0.717100
     37 O32          2.1630     2.7070    -5.9130 o          1 PC1      -0.600000
     38 C32          3.0900     4.9490    -6.0860 c3         1 PC1      -0.092400
     39 C33          2.5440     4.9980    -7.5130 c3         1 PC1      -0.015400
     40 C34          2.8400     6.3470    -8.1730 c3         1 PC1      -0.024400
     41 C35          2.2520     6.4770    -9.5820 c3         1 PC1      -0.022400
     42 C36          2.4860     7.8520   -10.2140 c3         1 PC1      -0.019400
     43 C37          1.9060     7.9140   -11.6290 c3         1 PC1      -0.020400
     44 C38          2.1180     9.2670   -12.3170 c3         1 PC1      -0.023400
     45 C39          1.6140     9.3700   -13.7600 c3         1 PC1      -0.020400
     46 C3A          1.9290    10.7130   -14.4220 c3         1 PC1      -0.019400
     47 C3B          1.4250    10.7470   -15.8680 c3         1 PC1      -0.023400
     48 C3C          1.7390    12.0620   -16.5890 c3         1 PC1      -0.021400
     49 C3D          1.2110    12.1050   -18.0250 c3         1 PC1      -0.021400
     50 C3E          1.5130    13.4250   -18.7430 c3         1 PC1      -0.023400
     51 C3F          0.9640    13.4800   -20.1710 c3         1 PC1      -0.019400
     52 C3G          1.3560    14.7880   -20.8630 c3         1 PC1      -0.025400
     53 C3H          0.8130    14.9070   -22.2890 c3         1 PC1      -0.025400
     54 C3I          1.2220    16.1930   -22.9890 c3         1 PC1       0.011900
     55 H111         0.6130    -1.3640    -2.3660 h1         1 PC1      -0.005300
     56 H112         2.0610    -0.4400    -2.7890 h1         1 PC1      -0.005300
     57 H121         3.3780    -2.5300    -2.7890 hx         1 PC1       0.072200
     58 H122         1.9100    -3.4420    -2.4080 hx         1 PC1       0.072200
     59 H131         1.7960    -0.5200    -4.8670 hx         1 PC1       0.061033
     60 H132         3.4580    -1.1050    -4.7060 hx         1 PC1       0.061033
     61 H133         2.5030    -1.5360    -6.1320 hx         1 PC1       0.061033
     62 H141         3.6590    -3.7770    -4.9340 hx         1 PC1       0.061033
     63 H142         2.2990    -3.8520    -6.0640 hx         1 PC1       0.061033
     64 H143         2.2250    -4.7310    -4.5300 hx         1 PC1       0.061033
     65 H151         0.2120    -3.0170    -5.5400 hx         1 PC1       0.061033
     66 H152         0.0120    -3.3720    -3.8190 hx         1 PC1       0.061033
     67 H153         0.0010    -1.6960    -4.3830 hx         1 PC1       0.061033
     68 H11          3.8680     1.6460    -0.1100 h1         1 PC1       0.009700
     69 H12          3.8680     0.6010    -1.5360 h1         1 PC1       0.009700
     70 H2           4.7140     2.8690    -2.0650 h1         1 PC1       0.015700
     71 H221         1.6630     5.1280     0.4150 hc         1 PC1       0.037700
     72 H222         2.8640     6.1820    -0.3310 hc         1 PC1       0.037700
     73 H231         3.0110     5.0160     2.4630 hc         1 PC1       0.026700
     74 H232         4.2490     6.0290     1.7170 hc         1 PC1       0.026700
     75 H241         2.5700     7.8420     1.4700 hc         1 PC1       0.008200
     76 H242         1.3850     6.8320     2.2910 hc         1 PC1       0.008200
     77 H251         2.7420     6.8440     4.3220 hc         1 PC1       0.013200
     78 H252         3.9870     7.7850     3.5070 hc         1 PC1       0.013200
     79 H261         2.4260     9.6660     3.2620 hc         1 PC1       0.010700
     80 H262         1.1560     8.7220     4.0450 hc         1 PC1       0.010700
     81 H271         2.5300     8.5790     6.0880 hc         1 PC1       0.011200
     82 H272         3.7900     9.5290     5.3070 hc         1 PC1       0.011200
     83 H281         2.2760    11.4370     5.1410 hc         1 PC1       0.007700
     84 H282         0.9780    10.4940     5.8520 hc         1 PC1       0.007700
     85 H291         3.5210    11.3660     7.2330 hc         1 PC1       0.010700
     86 H292         2.2880    10.3370     7.9550 hc         1 PC1       0.010700
     87 H2A1         1.8880    13.1920     7.0200 hc         1 PC1       0.011700
     88 H2A2         0.6360    12.1600     7.7160 hc         1 PC1       0.011700
     89 H2B1         3.1910    13.0250     9.0980 hc         1 PC1       0.011200
     90 H2B2         1.9650    11.9710     9.7930 hc         1 PC1       0.011200
     91 H2C1         1.5300    14.8480     8.9570 hc         1 PC1       0.010200
     92 H2C2         0.3210    13.7920     9.6800 hc         1 PC1       0.010200
     93 H2D1         1.6720    13.6390    11.7280 hc         1 PC1       0.010700
     94 H2D2         2.8920    14.6840    11.0050 hc         1 PC1       0.010700
     95 H2E1         1.2310    16.5070    10.8630 hc         1 PC1       0.010700
     96 H2E2         0.0300    15.4610    11.6140 hc         1 PC1       0.010700
     97 H2F1         2.6000    16.4350    12.8900 hc         1 PC1       0.011700
     98 H2F2         1.4560    15.3210    13.6440 hc         1 PC1       0.011700
     99 H2G1        -0.3070    17.0320    13.5090 hc         1 PC1       0.010700
    100 H2G2         0.8190    18.1420    12.7330 hc         1 PC1       0.010700
    101 H2H1         2.2090    18.1600    14.7550 hc         1 PC1       0.008700
    102 H2H2         1.1080    17.0270    15.5320 hc         1 PC1       0.008700
    103 H2I1        -0.6930    18.6970    15.4250 hc         1 PC1       0.000033
    104 H2I2         0.4130    19.8350    14.6420 hc         1 PC1       0.000033
    105 H2I3         0.7120    19.3140    16.3060 hc         1 PC1       0.000033
    106 H31          3.5050     1.6430    -3.8360 h1         1 PC1       0.012200
    107 H32          1.9750     2.3180    -3.2560 h1         1 PC1       0.012200
    108 H321         4.1650     5.0750    -6.1160 hc         1 PC1       0.042700
    109 H322         2.6550     5.7600    -5.5150 hc         1 PC1       0.042700
    110 H331         3.0040     4.2090    -8.0960 hc         1 PC1       0.021200
    111 H332         1.4720     4.8430    -7.4890 hc         1 PC1       0.021200
    112 H341         3.9140     6.4750    -8.2330 hc         1 PC1       0.011700
    113 H342         2.4300     7.1340    -7.5520 hc         1 PC1       0.011700
    114 H351         2.7020     5.7230   -10.2160 hc         1 PC1       0.011200
    115 H352         1.1850     6.2970    -9.5300 hc         1 PC1       0.011200
    116 H361         3.5510     8.0460   -10.2570 hc         1 PC1       0.012700
    117 H362         2.0110     8.6100    -9.6010 hc         1 PC1       0.012700
    118 H371         0.8420     7.7160   -11.5760 hc         1 PC1       0.010200
    119 H372         2.3730     7.1430   -12.2290 hc         1 PC1       0.010200
    120 H381         1.6160    10.0260   -11.7300 hc         1 PC1       0.009200
    121 H382         3.1790     9.4830   -12.3150 hc         1 PC1       0.009200
    122 H391         0.5400     9.2260   -13.7620 hc         1 PC1       0.009700
    123 H392         2.0710     8.5800   -14.3440 hc         1 PC1       0.009700
    124 H3A1         3.0010    10.8690   -14.4160 hc         1 PC1       0.012200
    125 H3A2         1.4510    11.5070   -13.8600 hc         1 PC1       0.012200
    126 H3B1         1.8850     9.9340   -16.4150 hc         1 PC1       0.010700
    127 H3B2         0.3520    10.6010   -15.8650 hc         1 PC1       0.010700
    128 H3C1         1.2950    12.8780   -16.0320 hc         1 PC1       0.010700
    129 H3C2         2.8130    12.1990   -16.6100 hc         1 PC1       0.010700
    130 H3D1         1.6610    11.2940   -18.5850 hc         1 PC1       0.010200
    131 H3D2         0.1370    11.9590   -18.0050 hc         1 PC1       0.010200
    132 H3E1         1.0790    14.2370   -18.1730 hc         1 PC1       0.010700
    133 H3E2         2.5880    13.5610   -18.7790 hc         1 PC1       0.010700
    134 H3F1         1.3620    12.6460   -20.7370 hc         1 PC1       0.011700
    135 H3F2        -0.1160    13.4040   -20.1390 hc         1 PC1       0.011700
    136 H3G1         2.4370    14.8520   -20.8960 hc         1 PC1       0.010700
    137 H3G2         0.9760    15.6170   -20.2770 hc         1 PC1       0.010700
    138 H3H1        -0.2690    14.8610   -22.2530 hc         1 PC1       0.008200
    139 H3H2         1.1760    14.0670   -22.8690 hc         1 PC1       0.008200
    140 H3I1         0.8550    17.0430   -22.4260 hc         1 PC1       0.000033
    141 H3I2         2.3020    16.2410   -23.0530 hc         1 PC1       0.000033
    142 H3I3         0.8000    16.2110   -23.9860 hc         1 PC1       0.000033
@<TRIPOS>BOND
     1     1     2 1   
     2     2     3 1   
     3     2     4 1   
     4     2    11 1   
     5     4     5 1   
     6     5     6 1   
     7     5    55 1   
     8     5    56 1   
     9     6     7 1   
    10     6    57 1   
    11     6    58 1   
    12     7     8 1   
    13     7     9 1   
    14     7    10 1   
    15     8    59 1   
    16     8    60 1   
    17     8    61 1   
    18     9    62 1   
    19     9    63 1   
    20     9    64 1   
    21    10    65 1   
    22    10    66 1   
    23    10    67 1   
    24    11    12 1   
    25    12    13 1   
    26    12    68 1   
    27    12    69 1   
    28    13    14 1   
    29    13    34 1   
    30    13    70 1   
    31    14    15 1   
    32    15    16 2   
    33    15    17 1   
    34    17    18 1   
    35    17    71 1   
    36    17    72 1   
    37    18    19 1   
    38    18    73 1   
    39    18    74 1   
    40    19    20 1   
    41    19    75 1   
    42    19    76 1   
    43    20    21 1   
    44    20    77 1   
    45    20    78 1   
    46    21    22 1   
    47    21    79 1   
    48    21    80 1   
    49    22    23 1   
    50    22    81 1   
    51    22    82 1   
    52    23    24 1   
    53    23    83 1   
    54    23    84 1   
    55    24    25 1   
    56    24    85 1   
    57    24    86 1   
    58    25    26 1   
    59    25    87 1   
    60    25    88 1   
    61    26    27 1   
    62    26    89 1   
    63    26    90 1   
    64    27    28 1   
    65    27    91 1   
    66    27    92 1   
    67    28    29 1   
    68    28    93 1   
    69    28    94 1   
    70    29    30 1   
    71    29    95 1   
    72    29    96 1   
    73    30    31 1   
    74    30    97 1   
    75    30    98 1   
    76    31    32 1   
    77    31    99 1   
    78    31   100 1   
    79    32    33 1   
    80    32   101 1   
    81    32   102 1   
    82    33   103 1   
    83    33   104 1   
    84    33   105 1   
    85    34    35 1   
    86    34   106 1   
    87    34   107 1   
    88    35    36 1   
    89    36    37 2   
    90    36    38 1   
    91    38    39 1   
    92    38   108 1   
    93    38   109 1   
    94    39    40 1   
    95    39   110 1   
    96    39   111 1   
    97    40    41 1   
    98    40   112 1   
    99    40   113 1   
   100    41    42 1   
   101    41   114 1   
   102    41   115 1   
   103    42    43 1   
   104    42   116 1   
   105    42   117 1   
   106    43    44 1   
   107    43   118 1   
   108    43   119 1   
   109    44    45 1   
   110    44   120 1   
   111    44   121 1   
   112    45    46 1   
   113    45   122 1   
   114    45   123 1   
   115    46    47 1   
   116    46   124 1   
   117    46   125 1   
   118    47    48 1   
   119    47   126 1   
   120    47   127 1   
   121    48    49 1   
   122    48   128 1   
   123    48   129 1   
   124    49    50 1   
   125    49   130 1   
   126    49   131 1   
   127    50    51 1   
   128    50   132 1   
   129    50   133 1   
   130    51    52 1   
   131    51   134 1   
   132    51   135 1   
   133    52    53 1   
   134    52   136 1   
   135    52   137 1   
   136    53    54 1   
   137    53   138 1   
   138    53   139 1   
   139    54   140 1   
   140    54   141 1   
   141    54   142 1   
@<TRIPOS>SUBSTRUCTURE
     1 PC1         1 TEMP              0 ****  ****    0 ROOT
