@<TRIPOS>MOLECULE
PC2
  142   141     1     0     0
SMALL
bcc


@<TRIPOS>ATOM
      1 C1           0.0000     0.0000     0.0000 c3         1 PC2       0.292400
      2 C2           1.5290     0.0000     0.0000 c3         1 PC2       0.152100
      3 C3           2.0400     0.0000     1.4430 c3         1 PC2       0.231400
      4 C4          -3.4920    -3.2500     2.2620 c3         1 PC2       0.304400
      5 C5          -3.3070    -4.3370     3.3230 c3         1 PC2      -0.056200
      6 C6          -5.1140    -5.6490     2.4460 c3         1 PC2       0.016433
      7 C7          -4.4500    -5.9000     4.7380 c3         1 PC2       0.016433
      8 C8          -5.5590    -3.8970     4.0230 c3         1 PC2       0.016433
      9 C11          1.9090    -1.3410     3.4080 c          1 PC2       0.687100
     10 C12          1.4640    -2.5640     4.1680 c3         1 PC2      -0.070400
     11 C13          1.9850    -2.4910     5.6040 c3         1 PC2      -0.023400
     12 C14          1.5320    -3.7330     6.3740 c3         1 PC2      -0.027400
     13 C15          2.0540    -3.6600     7.8110 c3         1 PC2      -0.029400
     14 C16          1.6010    -4.9020     8.5810 c3         1 PC2      -0.027400
     15 C17          2.1220    -4.8300    10.0180 c3         1 PC2      -0.029400
     16 C18          1.6690    -6.0710    10.7890 c3         1 PC2      -0.028400
     17 C19          2.1910    -5.9980    12.2250 c3         1 PC2      -0.029400
     18 C20          1.7380    -7.2390    12.9950 c3         1 PC2      -0.029400
     19 C21          2.2600    -7.1670    14.4320 c3         1 PC2      -0.029400
     20 C22          1.8070    -8.4090    15.2030 c3         1 PC2      -0.029400
     21 C23          2.3290    -8.3360    16.6390 c3         1 PC2      -0.029400
     22 C24          1.8750    -9.5780    17.4090 c3         1 PC2      -0.029400
     23 C25          2.3970    -9.5060    18.8460 c3         1 PC2      -0.029400
     24 C26          1.9440   -10.7470    19.6170 c3         1 PC2      -0.029400
     25 C27          2.4650   -10.6740    21.0530 c3         1 PC2      -0.028400
     26 C28          2.0130   -11.9160    21.8240 c3         1 PC2       0.006900
     27 C32          2.7190    -2.2730    -2.7860 c3         1 PC2      -0.070400
     28 C33          2.8630    -1.8940    -4.2610 c3         1 PC2      -0.021400
     29 C34          3.3720    -3.1010    -5.0510 c3         1 PC2      -0.029400
     30 C35          3.5170    -2.7210    -6.5260 c3         1 PC2      -0.027400
     31 C36          4.0260    -3.9280    -7.3160 c3         1 PC2      -0.029400
     32 C37          4.1700    -3.5480    -8.7910 c3         1 PC2      -0.029400
     33 C38          4.6800    -4.7560    -9.5810 c3         1 PC2      -0.029400
     34 C39          4.8250    -4.3770   -11.0560 c3         1 PC2      -0.029400
     35 C40          5.3340    -5.5840   -11.8460 c3         1 PC2      -0.029400
     36 C41          5.4790    -5.2040   -13.3210 c3         1 PC2      -0.029400
     37 C42          5.9880    -6.4110   -14.1110 c3         1 PC2      -0.029400
     38 C43          6.1320    -6.0310   -15.5860 c3         1 PC2      -0.029400
     39 C44          6.6420    -7.2380   -16.3760 c3         1 PC2      -0.029400
     40 C45          6.7860    -6.8580   -17.8510 c3         1 PC2      -0.029400
     41 C46          7.2950    -8.0660   -18.6410 c3         1 PC2      -0.030400
     42 C47          7.4400    -7.6870   -20.1160 c3         1 PC2      -0.028400
     43 C48          7.9500    -8.8940   -20.9050 c3         1 PC2       0.006900
     44 N           -4.6070    -4.9460     3.6330 n4         1 PC2       0.054200
     45 O2           2.0140    -1.1850    -0.6840 os         1 PC2      -0.390900
     46 O3           1.4800    -1.1360     2.1530 os         1 PC2      -0.347900
     47 O11          2.6540    -0.5440     3.9300 o          1 PC2      -0.615000
     48 O31          1.9970    -0.0400    -2.5750 o          1 PC2      -0.599000
     49 O1P         -2.7930    -0.3330     1.3720 o          1 PC2      -0.646000
     50 O2P         -2.5950    -1.9100    -0.5880 o          1 PC2      -0.646000
     51 O3P         -0.4760    -1.1190     0.7520 os         1 PC2      -0.485200
     52 O4P         -2.2160    -2.7370     1.8780 os         1 PC2      -0.483200
     53 P           -2.0370    -1.4990     0.8640 p5         1 PC2       0.926800
     54 H12         -0.3610     0.9170     0.4490 h1         1 PC2       0.001200
     55 H11         -0.3610    -0.0690    -1.0190 h1         1 PC2       0.001200
     56 H2           1.8900     0.8850    -0.5110 h1         1 PC2       0.041700
     57 H32          1.7380     0.9180     1.9330 h1         1 PC2       0.010200
     58 H31          3.1210    -0.0710     1.4430 h1         1 PC2       0.010200
     59 H42         -4.0970    -2.4480     2.6680 h1         1 PC2      -0.001800
     60 H41         -3.9870    -3.6720     1.3950 h1         1 PC2      -0.001800
     61 H52         -2.8910    -3.8980     4.2210 hx         1 PC2       0.075200
     62 H51         -2.6330    -5.0970     2.9470 hx         1 PC2       0.075200
     63 H63         -4.2980    -6.1680     1.9580 hx         1 PC2       0.068478
     64 H62         -5.5490    -4.9330     1.7600 hx         1 PC2       0.068478
     65 H61         -5.8690    -6.3660     2.7460 hx         1 PC2       0.068478
     66 H73         -5.4080    -6.3550     4.9610 hx         1 PC2       0.068478
     67 H72         -4.0840    -5.3800     5.6150 hx         1 PC2       0.068478
     68 H71         -3.7430    -6.6700     4.4530 hx         1 PC2       0.068478
     69 H83         -6.3970    -4.3450     4.5430 hx         1 PC2       0.068478
     70 H82         -5.0660    -3.1870     4.6760 hx         1 PC2       0.068478
     71 H81         -5.9160    -3.3860     3.1370 hx         1 PC2       0.068478
     72 H122         1.8570    -3.4510     3.6860 hc         1 PC2       0.032700
     73 H121         0.3820    -2.6080     4.1790 hc         1 PC2       0.032700
     74 H132         3.0680    -2.4470     5.5940 hc         1 PC2       0.030700
     75 H131         1.5930    -1.6030     6.0860 hc         1 PC2       0.030700
     76 H142         1.9230    -4.6200     5.8920 hc         1 PC2       0.005200
     77 H141         0.4490    -3.7760     6.3860 hc         1 PC2       0.005200
     78 H152         3.1370    -3.6170     7.8000 hc         1 PC2       0.019200
     79 H151         1.6630    -2.7720     8.2930 hc         1 PC2       0.019200
     80 H162         1.9930    -5.7890     8.0990 hc         1 PC2       0.008700
     81 H161         0.5180    -4.9450     8.5920 hc         1 PC2       0.008700
     82 H172         1.7300    -3.9420    10.5010 hc         1 PC2       0.017200
     83 H171         3.2050    -4.7860    10.0080 hc         1 PC2       0.017200
     84 H182         2.0620    -6.9580    10.3070 hc         1 PC2       0.011700
     85 H181         0.5870    -6.1150    10.7990 hc         1 PC2       0.011700
     86 H192         1.7980    -5.1110    12.7070 hc         1 PC2       0.016200
     87 H191         3.2730    -5.9540    12.2150 hc         1 PC2       0.016200
     88 H202         0.6550    -7.2830    13.0060 hc         1 PC2       0.012700
     89 H201         2.1300    -8.1270    12.5130 hc         1 PC2       0.012700
     90 H212         1.8680    -6.2800    14.9140 hc         1 PC2       0.015200
     91 H211         3.3420    -7.1240    14.4210 hc         1 PC2       0.015200
     92 H222         0.7240    -8.4520    15.2140 hc         1 PC2       0.013700
     93 H221         2.1980    -9.2960    14.7210 hc         1 PC2       0.013700
     94 H232         1.9370    -7.4490    17.1220 hc         1 PC2       0.015200
     95 H231         3.4110    -8.2930    16.6280 hc         1 PC2       0.015200
     96 H242         0.7920    -9.6210    17.4200 hc         1 PC2       0.014200
     97 H241         2.2670   -10.4660    16.9270 hc         1 PC2       0.014200
     98 H252         3.4790    -9.4630    18.8350 hc         1 PC2       0.014700
     99 H251         2.0050    -8.6180    19.3280 hc         1 PC2       0.014700
    100 H262         2.3360   -11.6350    19.1350 hc         1 PC2       0.014200
    101 H261         0.8610   -10.7910    19.6280 hc         1 PC2       0.014200
    102 H272         2.0720    -9.7870    21.5350 hc         1 PC2       0.012200
    103 H271         3.5470   -10.6300    21.0430 hc         1 PC2       0.012200
    104 H283         0.9300   -11.9580    21.8390 hc         1 PC2       0.000033
    105 H282         2.4010   -12.8040    21.3390 hc         1 PC2       0.000033
    106 H281         2.3860   -11.8670    22.8390 hc         1 PC2       0.000033
    107 H322         3.6820    -2.5800    -2.3970 hc         1 PC2       0.033700
    108 H321         2.0140    -3.0910    -2.6910 hc         1 PC2       0.033700
    109 H332         3.5670    -1.0760    -4.3560 hc         1 PC2       0.030200
    110 H331         1.9000    -1.5880    -4.6500 hc         1 PC2       0.030200
    111 H342         2.6680    -3.9180    -4.9560 hc         1 PC2       0.011700
    112 H341         4.3350    -3.4080    -4.6610 hc         1 PC2       0.011700
    113 H352         2.5540    -2.4140    -6.9160 hc         1 PC2       0.017200
    114 H351         4.2220    -1.9040    -6.6210 hc         1 PC2       0.017200
    115 H362         3.3220    -4.7450    -7.2200 hc         1 PC2       0.013200
    116 H361         4.9900    -4.2340    -6.9260 hc         1 PC2       0.013200
    117 H372         3.2070    -3.2420    -9.1810 hc         1 PC2       0.015200
    118 H371         4.8750    -2.7310    -8.8870 hc         1 PC2       0.015200
    119 H382         3.9750    -5.5730    -9.4850 hc         1 PC2       0.013700
    120 H381         5.6430    -5.0620    -9.1900 hc         1 PC2       0.013700
    121 H392         3.8610    -4.0700   -11.4460 hc         1 PC2       0.014700
    122 H391         5.5290    -3.5590   -11.1510 hc         1 PC2       0.014700
    123 H402         4.6290    -6.4010   -11.7520 hc         1 PC2       0.013700
    124 H401         6.2970    -5.8900   -11.4560 hc         1 PC2       0.013700
    125 H412         6.1830    -4.3860   -13.4150 hc         1 PC2       0.014700
    126 H411         4.5160    -4.8970   -13.7110 hc         1 PC2       0.014700
    127 H422         6.9510    -6.7170   -13.7210 hc         1 PC2       0.014700
    128 H421         5.2840    -7.2280   -14.0160 hc         1 PC2       0.014700
    129 H432         6.8370    -5.2140   -15.6820 hc         1 PC2       0.014700
    130 H431         5.1690    -5.7250   -15.9760 hc         1 PC2       0.014700
    131 H442         7.6050    -7.5450   -15.9860 hc         1 PC2       0.014700
    132 H441         5.9370    -8.0560   -16.2810 hc         1 PC2       0.014700
    133 H452         7.4920    -6.0410   -17.9460 hc         1 PC2       0.014700
    134 H451         5.8230    -6.5510   -18.2410 hc         1 PC2       0.014700
    135 H462         8.2580    -8.3730   -18.2500 hc         1 PC2       0.014700
    136 H461         6.5890    -8.8830   -18.5460 hc         1 PC2       0.014700
    137 H472         6.4780    -7.3800   -20.5060 hc         1 PC2       0.011700
    138 H471         8.1450    -6.8700   -20.2110 hc         1 PC2       0.011700
    139 H483         8.9160    -9.1960   -20.5200 hc         1 PC2       0.000033
    140 H482         8.0450    -8.6270   -21.9510 hc         1 PC2       0.000033
    141 H481         7.2490    -9.7130   -20.8040 hc         1 PC2       0.000033
    142 C31          2.2170    -1.0840    -2.0080 c          1 PC2       0.697100
@<TRIPOS>BOND
     1     1     2 1   
     2     1    51 1   
     3     1    54 1   
     4     1    55 1   
     5     2     3 1   
     6     2    45 1   
     7     2    56 1   
     8     3    46 1   
     9     3    57 1   
    10     3    58 1   
    11     4     5 1   
    12     4    52 1   
    13     4    59 1   
    14     4    60 1   
    15     5    44 1   
    16     5    61 1   
    17     5    62 1   
    18     6    44 1   
    19     6    63 1   
    20     6    64 1   
    21     6    65 1   
    22     7    44 1   
    23     7    66 1   
    24     7    67 1   
    25     7    68 1   
    26     8    44 1   
    27     8    69 1   
    28     8    70 1   
    29     8    71 1   
    30     9    10 1   
    31     9    46 1   
    32     9    47 2   
    33    10    11 1   
    34    10    72 1   
    35    10    73 1   
    36    11    12 1   
    37    11    74 1   
    38    11    75 1   
    39    12    13 1   
    40    12    76 1   
    41    12    77 1   
    42    13    14 1   
    43    13    78 1   
    44    13    79 1   
    45    14    15 1   
    46    14    80 1   
    47    14    81 1   
    48    15    16 1   
    49    15    82 1   
    50    15    83 1   
    51    16    17 1   
    52    16    84 1   
    53    16    85 1   
    54    17    18 1   
    55    17    86 1   
    56    17    87 1   
    57    18    19 1   
    58    18    88 1   
    59    18    89 1   
    60    19    20 1   
    61    19    90 1   
    62    19    91 1   
    63    20    21 1   
    64    20    92 1   
    65    20    93 1   
    66    21    22 1   
    67    21    94 1   
    68    21    95 1   
    69    22    23 1   
    70    22    96 1   
    71    22    97 1   
    72    23    24 1   
    73    23    98 1   
    74    23    99 1   
    75    24    25 1   
    76    24   100 1   
    77    24   101 1   
    78    25    26 1   
    79    25   102 1   
    80    25   103 1   
    81    26   104 1   
    82    26   105 1   
    83    26   106 1   
    84    27    28 1   
    85    27   107 1   
    86    27   108 1   
    87    27   142 1   
    88    28    29 1   
    89    28   109 1   
    90    28   110 1   
    91    29    30 1   
    92    29   111 1   
    93    29   112 1   
    94    30    31 1   
    95    30   113 1   
    96    30   114 1   
    97    31    32 1   
    98    31   115 1   
    99    31   116 1   
   100    32    33 1   
   101    32   117 1   
   102    32   118 1   
   103    33    34 1   
   104    33   119 1   
   105    33   120 1   
   106    34    35 1   
   107    34   121 1   
   108    34   122 1   
   109    35    36 1   
   110    35   123 1   
   111    35   124 1   
   112    36    37 1   
   113    36   125 1   
   114    36   126 1   
   115    37    38 1   
   116    37   127 1   
   117    37   128 1   
   118    38    39 1   
   119    38   129 1   
   120    38   130 1   
   121    39    40 1   
   122    39   131 1   
   123    39   132 1   
   124    40    41 1   
   125    40   133 1   
   126    40   134 1   
   127    41    42 1   
   128    41   135 1   
   129    41   136 1   
   130    42    43 1   
   131    42   137 1   
   132    42   138 1   
   133    43   139 1   
   134    43   140 1   
   135    43   141 1   
   136    45   142 1   
   137    48   142 2   
   138    49    53 1   
   139    50    53 1   
   140    51    53 1   
   141    52    53 1   
@<TRIPOS>SUBSTRUCTURE
     1 PC2         1 TEMP              0 ****  ****    0 ROOT
