@<TRIPOS>MOLECULE
PC5
   64    63     1     0     0
SMALL
bcc


@<TRIPOS>ATOM
      1 C14          0.0000     0.0000     0.0000 c3         1 PC5       0.007900
      2 C13          1.5300     0.0000     0.0000 c3         1 PC5      -0.029400
      3 C12          2.0400     0.0000     1.4430 c3         1 PC5      -0.022400
      4 C11          3.5710     0.0000     1.4420 c3         1 PC5      -0.069400
      5 C10          4.0730     0.0000     2.8630 c          1 PC5       0.690100
      6 O7           3.2880    -0.0000     3.7820 o          1 PC5      -0.588000
      7 O6           5.3930     0.0010     3.1080 os         1 PC5      -0.400900
      8 C9           5.8040    -0.0000     4.5000 c3         1 PC5       0.201400
      9 C8           7.3320     0.0010     4.5800 c3         1 PC5       0.156100
     10 O5           7.8450     1.2410     4.0270 os         1 PC5      -0.391900
     11 C15          8.1180     1.2570     2.7140 c          1 PC5       0.690100
     12 O8           7.9330     0.2670     2.0470 o          1 PC5      -0.587000
     13 C16          8.6530     2.5100     2.0700 c3         1 PC5      -0.070400
     14 C17          8.8760     2.2620     0.5770 c3         1 PC5      -0.021400
     15 C18          9.4200     3.5340    -0.0760 c3         1 PC5      -0.030400
     16 C19          9.6430     3.2850    -1.5700 c3         1 PC5       0.008900
     17 C7           7.7670    -0.1260     6.0420 c3         1 PC5       0.279400
     18 O1           9.1890    -0.2430     6.1070 os         1 PC5      -0.453200
     19 P1           9.9930    -0.3930     7.4950 p5         1 PC5       1.229800
     20 S2          10.0480     1.3660     8.4240 s          1 PC5      -0.886000
     21 S3           9.0750    -1.7280     8.6530 s          1 PC5      -0.886000
     22 O4          11.4950    -0.8880     7.1920 os         1 PC5      -0.490200
     23 C5          12.5460    -0.8210     8.1590 c3         1 PC5       0.255400
     24 C4          13.8370    -1.3700     7.5480 c3         1 PC5      -0.029200
     25 N1          14.2850    -0.4790     6.4700 n4         1 PC5       0.061200
     26 C1          14.4050     0.8920     6.9850 c3         1 PC5       0.008100
     27 C2          15.5920    -0.9300     5.9730 c3         1 PC5       0.008100
     28 C3          13.3090    -0.5060     5.3730 c3         1 PC5       0.008100
     29 H141        -0.3610    -0.0460    -1.0200 hc         1 PC5       0.001367
     30 H142        -0.3610     0.9070     0.4700 hc         1 PC5       0.001367
     31 H143        -0.3610    -0.8610     0.5500 hc         1 PC5       0.001367
     32 H131         1.8910     0.8850    -0.5110 hc         1 PC5       0.010200
     33 H132         1.8910    -0.8850    -0.5110 hc         1 PC5       0.010200
     34 H121         1.6790     0.8840     1.9530 hc         1 PC5       0.030200
     35 H122         1.6790    -0.8850     1.9530 hc         1 PC5       0.030200
     36 H111         3.9310     0.8850     0.9310 hc         1 PC5       0.035700
     37 H112         3.9320    -0.8840     0.9310 hc         1 PC5       0.035700
     38 H91          5.4180    -0.8860     4.9910 h1         1 PC5       0.025700
     39 H92          5.4160     0.8840     4.9920 h1         1 PC5       0.025700
     40 H8           7.7230    -0.8360     4.0130 h1         1 PC5       0.049700
     41 H161         9.5930     2.7820     2.5350 hc         1 PC5       0.033700
     42 H162         7.9400     3.3160     2.2000 hc         1 PC5       0.033700
     43 H171         7.9360     1.9910     0.1120 hc         1 PC5       0.027200
     44 H172         9.5890     1.4560     0.4470 hc         1 PC5       0.027200
     45 H181        10.3600     3.8050     0.3890 hc         1 PC5       0.010200
     46 H182         8.7070     4.3390     0.0540 hc         1 PC5       0.010200
     47 H191         8.7040     3.0050    -2.0330 hc         1 PC5       0.001033
     48 H192        10.0190     4.1890    -2.0340 hc         1 PC5       0.001033
     49 H193        10.3620     2.4860    -1.6990 hc         1 PC5       0.001033
     50 H71          7.3110    -1.0060     6.4790 h1         1 PC5       0.028700
     51 H72          7.4510     0.7540     6.5900 h1         1 PC5       0.028700
     52 H51         12.2780    -1.4120     9.0260 h1         1 PC5       0.045700
     53 H52         12.6980     0.2090     8.4570 h1         1 PC5       0.045700
     54 H41         13.6540    -2.3600     7.1460 hx         1 PC5       0.073700
     55 H42         14.6030    -1.4270     8.3120 hx         1 PC5       0.073700
     56 H11         15.0510     1.4680     6.3340 hx         1 PC5       0.072589
     57 H12         14.8270     0.8670     7.9820 hx         1 PC5       0.072589
     58 H13         13.4240     1.3510     7.0200 hx         1 PC5       0.072589
     59 H21         15.5100    -1.9490     5.6150 hx         1 PC5       0.072589
     60 H22         15.9110    -0.2870     5.1610 hx         1 PC5       0.072589
     61 H23         16.3180    -0.8870     6.7750 hx         1 PC5       0.072589
     62 H31         12.5240     0.2140     5.5710 hx         1 PC5       0.072589
     63 H32         12.8780    -1.4970     5.2970 hx         1 PC5       0.072589
     64 H33         13.8030    -0.2540     4.4430 hx         1 PC5       0.072589
@<TRIPOS>BOND
     1     1     2 1   
     2     1    29 1   
     3     1    30 1   
     4     1    31 1   
     5     2     3 1   
     6     2    32 1   
     7     2    33 1   
     8     3     4 1   
     9     3    34 1   
    10     3    35 1   
    11     4     5 1   
    12     4    36 1   
    13     4    37 1   
    14     5     6 2   
    15     5     7 1   
    16     7     8 1   
    17     8     9 1   
    18     8    38 1   
    19     8    39 1   
    20     9    10 1   
    21     9    17 1   
    22     9    40 1   
    23    10    11 1   
    24    11    12 2   
    25    11    13 1   
    26    13    14 1   
    27    13    41 1   
    28    13    42 1   
    29    14    15 1   
    30    14    43 1   
    31    14    44 1   
    32    15    16 1   
    33    15    45 1   
    34    15    46 1   
    35    16    47 1   
    36    16    48 1   
    37    16    49 1   
    38    17    18 1   
    39    17    50 1   
    40    17    51 1   
    41    18    19 1   
    42    19    20 1   
    43    19    21 1   
    44    19    22 1   
    45    22    23 1   
    46    23    24 1   
    47    23    52 1   
    48    23    53 1   
    49    24    25 1   
    50    24    54 1   
    51    24    55 1   
    52    25    26 1   
    53    25    27 1   
    54    25    28 1   
    55    26    56 1   
    56    26    57 1   
    57    26    58 1   
    58    27    59 1   
    59    27    60 1   
    60    27    61 1   
    61    28    62 1   
    62    28    63 1   
    63    28    64 1   
@<TRIPOS>SUBSTRUCTURE
     1 PC5         1 TEMP              0 ****  ****    0 ROOT
