@<TRIPOS>MOLECULE
PC6
  145   144     1     0     0
SMALL
bcc


@<TRIPOS>ATOM
      1 OP2          0.0000     0.0000     0.0000 o          1 PC6      -0.662000
      2 P            1.5450     0.0000     0.0000 p5         1 PC6       0.893800
      3 OP3          2.0590     0.0000     1.4570 o          1 PC6      -0.662000
      4 OP4          2.0820     1.3140    -0.7590 os         1 PC6      -0.489200
      5 CE1          1.6740     2.4390     0.0240 c3         1 PC6       0.225400
      6 CE2          2.1550     3.7280    -0.6450 c3         1 PC6      -0.033200
      7 NM3          1.4510     3.9080    -1.9220 n4         1 PC6       0.063200
      8 CM3          0.0010     3.8600    -1.6940 c3         1 PC6       0.010100
      9 CM2          1.8130     5.2090    -2.5010 c3         1 PC6       0.010100
     10 CM1          1.8370     2.8360    -2.8490 c3         1 PC6       0.010100
     11 OP1          2.0810    -1.3150    -0.7590 os         1 PC6      -0.442200
     12 C39          1.6750    -2.4390     0.0240 c3         1 PC6       0.225400
     13 C38          2.1550    -3.7280    -0.6460 c3         1 PC6       0.168100
     14 C40          1.6490    -3.7720    -2.0880 c3         1 PC6       0.238400
     15 O40          2.0640    -2.5680    -2.7860 os         1 PC6      -0.361900
     16 C26          1.7290    -2.3890    -4.0730 c          1 PC6       0.691100
     17 O26          1.0820    -3.2290    -4.6530 o          1 PC6      -0.611000
     18 C27          2.1600    -1.1380    -4.7970 c3         1 PC6      -0.064400
     19 C28          1.6530    -1.1840    -6.2390 c3         1 PC6      -0.024400
     20 C29          2.0900     0.0850    -6.9730 c3         1 PC6      -0.027400
     21 C30          1.5830     0.0410    -8.4170 c3         1 PC6      -0.028400
     22 C31          2.0200     1.3100    -9.1500 c3         1 PC6      -0.028400
     23 C32          1.5120     1.2650   -10.5930 c3         1 PC6      -0.029400
     24 C33          1.9500     2.5340   -11.3270 c3         1 PC6      -0.028400
     25 C34          1.4430     2.4890   -12.7710 c3         1 PC6      -0.029400
     26 C35          1.8800     3.7570   -13.5040 c3         1 PC6      -0.029400
     27 C36          1.3720     3.7130   -14.9470 c3         1 PC6      -0.028400
     28 C37          1.8110     4.9820   -15.6820 c3         1 PC6       0.006900
     29 O38          3.6070    -3.7620    -0.6420 os         1 PC6      -0.404900
     30 C1           4.2620    -4.3190     0.3890 c          1 PC6       0.699100
     31 O1           3.6450    -4.7910     1.3130 o          1 PC6      -0.595000
     32 C2           5.7690    -4.3550     0.3930 c3         1 PC6      -0.068400
     33 C3           6.2600    -5.0380     1.6710 c3         1 PC6      -0.021400
     34 C4           7.7890    -5.0750     1.6750 c3         1 PC6      -0.030400
     35 C5           8.2790    -5.7570     2.9540 c3         1 PC6      -0.027400
     36 C6           9.8090    -5.7940     2.9580 c3         1 PC6      -0.029400
     37 C7          10.2990    -6.4770     4.2360 c3         1 PC6      -0.029400
     38 C8          11.8290    -6.5130     4.2410 c3         1 PC6      -0.029400
     39 C9          12.3190    -7.1970     5.5190 c3         1 PC6      -0.029400
     40 C10         13.8480    -7.2330     5.5230 c3         1 PC6      -0.029400
     41 C11         14.3380    -7.9160     6.8010 c3         1 PC6      -0.029400
     42 C12         15.8680    -7.9520     6.8060 c3         1 PC6      -0.029400
     43 C13         16.3580    -8.6360     8.0840 c3         1 PC6      -0.029400
     44 C14         17.8880    -8.6730     8.0880 c3         1 PC6      -0.029400
     45 C15         18.3780    -9.3550     9.3670 c3         1 PC6      -0.029400
     46 C16         19.9070    -9.3920     9.3710 c3         1 PC6      -0.029400
     47 C17         20.3980   -10.0760    10.6490 c3         1 PC6      -0.029400
     48 C18         21.9270   -10.1120    10.6530 c3         1 PC6      -0.029400
     49 C19         22.4170   -10.7950    11.9320 c3         1 PC6      -0.029400
     50 C20         23.9470   -10.8310    11.9360 c3         1 PC6      -0.029400
     51 C21         24.4380   -11.5150    13.2140 c3         1 PC6      -0.029400
     52 C22         25.9680   -11.5520    13.2180 c3         1 PC6      -0.029400
     53 C23         26.4580   -12.2340    14.4970 c3         1 PC6      -0.030400
     54 C24         27.9870   -12.2710    14.5010 c3         1 PC6      -0.028400
     55 C25         28.4770   -12.9540    15.7780 c3         1 PC6       0.005900
     56 HE11         0.5940     2.4530     0.1010 h1         1 PC6       0.048700
     57 HE12         2.1050     2.3640     1.0150 h1         1 PC6       0.048700
     58 HE21         1.9480     4.5700     0.0040 hx         1 PC6       0.065200
     59 HE22         3.2210     3.6650    -0.8250 hx         1 PC6       0.065200
     60 HM31        -0.5050     4.4330    -2.4620 hx         1 PC6       0.070478
     61 HM32        -0.2260     4.2810    -0.7210 hx         1 PC6       0.070478
     62 HM33        -0.3370     2.8320    -1.7290 hx         1 PC6       0.070478
     63 HM21         1.3450     5.3150    -3.4720 hx         1 PC6       0.070478
     64 HM22         1.4710     6.0030    -1.8470 hx         1 PC6       0.070478
     65 HM23         2.8890     5.2690    -2.6100 hx         1 PC6       0.070478
     66 HM11         1.7430     3.1890    -3.8690 hx         1 PC6       0.070478
     67 HM12         1.1880     1.9810    -2.7020 hx         1 PC6       0.070478
     68 HM13         2.8630     2.5460    -2.6600 hx         1 PC6       0.070478
     69 H391         0.5940    -2.4530     0.1010 h1         1 PC6       0.028700
     70 H392         2.1060    -2.3640     1.0140 h1         1 PC6       0.028700
     71 H38          1.7720    -4.5820    -0.1020 h1         1 PC6       0.039700
     72 H401         2.0610    -4.6400    -2.5890 h1         1 PC6       0.009700
     73 H402         0.5670    -3.8350    -2.0890 h1         1 PC6       0.009700
     74 H271         3.2410    -1.0750    -4.7960 hc         1 PC6       0.027200
     75 H272         1.7470    -0.2710    -4.2960 hc         1 PC6       0.027200
     76 H281         2.0660    -2.0510    -6.7400 hc         1 PC6       0.031700
     77 H282         0.5710    -1.2480    -6.2400 hc         1 PC6       0.031700
     78 H291         1.6770     0.9530    -6.4720 hc         1 PC6       0.004700
     79 H292         3.1710     0.1490    -6.9720 hc         1 PC6       0.004700
     80 H301         0.5010    -0.0220    -8.4180 hc         1 PC6       0.019700
     81 H302         1.9950    -0.8260    -8.9180 hc         1 PC6       0.019700
     82 H311         1.6080     2.1770    -8.6490 hc         1 PC6       0.009700
     83 H312         3.1020     1.3730    -9.1500 hc         1 PC6       0.009700
     84 H321         0.4310     1.2020   -10.5940 hc         1 PC6       0.017200
     85 H322         1.9250     0.3970   -11.0940 hc         1 PC6       0.017200
     86 H331         1.5370     3.4010   -10.8260 hc         1 PC6       0.012200
     87 H332         3.0310     2.5970   -11.3260 hc         1 PC6       0.012200
     88 H341         0.3610     2.4260   -12.7720 hc         1 PC6       0.015700
     89 H342         1.8550     1.6220   -13.2710 hc         1 PC6       0.015700
     90 H351         1.4680     4.6250   -13.0030 hc         1 PC6       0.013700
     91 H352         2.9610     3.8200   -13.5040 hc         1 PC6       0.013700
     92 H361         1.7840     2.8450   -15.4480 hc         1 PC6       0.012700
     93 H362         0.2910     3.6500   -14.9480 hc         1 PC6       0.012700
     94 H371         1.4020     4.9770   -16.6850 hc         1 PC6       0.000367
     95 H372         1.4480     5.8520   -15.1480 hc         1 PC6       0.000367
     96 H373         2.8920     5.0140   -15.7320 hc         1 PC6       0.000367
     97 H21          6.1550    -3.3430     0.3540 hc         1 PC6       0.032700
     98 H22          6.1200    -4.9080    -0.4700 hc         1 PC6       0.032700
     99 H31          5.8740    -6.0500     1.7100 hc         1 PC6       0.030700
    100 H32          5.9090    -4.4850     2.5340 hc         1 PC6       0.030700
    101 H41          8.1740    -4.0630     1.6350 hc         1 PC6       0.011200
    102 H42          8.1390    -5.6290     0.8120 hc         1 PC6       0.011200
    103 H51          7.8930    -6.7690     2.9930 hc         1 PC6       0.017200
    104 H52          7.9280    -5.2030     3.8160 hc         1 PC6       0.017200
    105 H61         10.1940    -4.7820     2.9180 hc         1 PC6       0.013200
    106 H62         10.1590    -6.3480     2.0950 hc         1 PC6       0.013200
    107 H71          9.9140    -7.4880     4.2760 hc         1 PC6       0.015200
    108 H72          9.9490    -5.9230     5.0980 hc         1 PC6       0.015200
    109 H81         12.2140    -5.5020     4.2020 hc         1 PC6       0.013700
    110 H82         12.1790    -7.0670     3.3780 hc         1 PC6       0.013700
    111 H91         11.9330    -8.2080     5.5580 hc         1 PC6       0.014700
    112 H92         11.9690    -6.6430     6.3820 hc         1 PC6       0.014700
    113 H101        14.2330    -6.2220     5.4830 hc         1 PC6       0.013700
    114 H102        14.1980    -7.7870     4.6600 hc         1 PC6       0.013700
    115 H111        13.9880    -7.3610     7.6640 hc         1 PC6       0.014700
    116 H112        13.9520    -8.9270     6.8410 hc         1 PC6       0.014700
    117 H121        16.2530    -6.9410     6.7670 hc         1 PC6       0.014700
    118 H122        16.2180    -8.5060     5.9430 hc         1 PC6       0.014700
    119 H131        15.9730    -9.6480     8.1230 hc         1 PC6       0.014700
    120 H132        16.0080    -8.0830     8.9460 hc         1 PC6       0.014700
    121 H141        18.2390    -9.2270     7.2260 hc         1 PC6       0.014700
    122 H142        18.2740    -7.6610     8.0480 hc         1 PC6       0.014700
    123 H151        17.9930   -10.3670     9.4070 hc         1 PC6       0.014700
    124 H152        18.0280    -8.8010    10.2290 hc         1 PC6       0.014700
    125 H161        20.2570    -9.9450     8.5080 hc         1 PC6       0.014700
    126 H162        20.2930    -8.3800     9.3320 hc         1 PC6       0.014700
    127 H171        20.0130   -11.0870    10.6880 hc         1 PC6       0.014700
    128 H172        20.0480    -9.5220    11.5120 hc         1 PC6       0.014700
    129 H181        22.2780   -10.6660     9.7900 hc         1 PC6       0.014700
    130 H182        22.3130    -9.1000    10.6130 hc         1 PC6       0.014700
    131 H191        22.0670   -10.2400    12.7940 hc         1 PC6       0.014700
    132 H192        22.0320   -11.8060    11.9710 hc         1 PC6       0.014700
    133 H201        24.3330    -9.8200    11.8970 hc         1 PC6       0.014700
    134 H202        24.2980   -11.3850    11.0730 hc         1 PC6       0.014700
    135 H211        24.0870   -10.9610    14.0770 hc         1 PC6       0.014700
    136 H212        24.0520   -12.5260    13.2530 hc         1 PC6       0.014700
    137 H221        26.3530   -10.5400    13.1780 hc         1 PC6       0.014700
    138 H222        26.3180   -12.1060    12.3560 hc         1 PC6       0.014700
    139 H231        26.1070   -11.6800    15.3590 hc         1 PC6       0.014700
    140 H232        26.0720   -13.2460    14.5370 hc         1 PC6       0.014700
    141 H241        28.3720   -11.2590    14.4620 hc         1 PC6       0.011700
    142 H242        28.3370   -12.8240    13.6380 hc         1 PC6       0.011700
    143 H251        28.1340   -12.3960    16.6410 hc         1 PC6       0.000033
    144 H252        29.5600   -12.9880    15.7770 hc         1 PC6       0.000033
    145 H253        28.0850   -13.9630    15.8220 hc         1 PC6       0.000033
@<TRIPOS>BOND
     1     1     2 1   
     2     2     3 1   
     3     2     4 1   
     4     2    11 1   
     5     4     5 1   
     6     5     6 1   
     7     5    56 1   
     8     5    57 1   
     9     6     7 1   
    10     6    58 1   
    11     6    59 1   
    12     7     8 1   
    13     7     9 1   
    14     7    10 1   
    15     8    60 1   
    16     8    61 1   
    17     8    62 1   
    18     9    63 1   
    19     9    64 1   
    20     9    65 1   
    21    10    66 1   
    22    10    67 1   
    23    10    68 1   
    24    11    12 1   
    25    12    13 1   
    26    12    69 1   
    27    12    70 1   
    28    13    14 1   
    29    13    29 1   
    30    13    71 1   
    31    14    15 1   
    32    14    72 1   
    33    14    73 1   
    34    15    16 1   
    35    16    17 2   
    36    16    18 1   
    37    18    19 1   
    38    18    74 1   
    39    18    75 1   
    40    19    20 1   
    41    19    76 1   
    42    19    77 1   
    43    20    21 1   
    44    20    78 1   
    45    20    79 1   
    46    21    22 1   
    47    21    80 1   
    48    21    81 1   
    49    22    23 1   
    50    22    82 1   
    51    22    83 1   
    52    23    24 1   
    53    23    84 1   
    54    23    85 1   
    55    24    25 1   
    56    24    86 1   
    57    24    87 1   
    58    25    26 1   
    59    25    88 1   
    60    25    89 1   
    61    26    27 1   
    62    26    90 1   
    63    26    91 1   
    64    27    28 1   
    65    27    92 1   
    66    27    93 1   
    67    28    94 1   
    68    28    95 1   
    69    28    96 1   
    70    29    30 1   
    71    30    31 2   
    72    30    32 1   
    73    32    33 1   
    74    32    97 1   
    75    32    98 1   
    76    33    34 1   
    77    33    99 1   
    78    33   100 1   
    79    34    35 1   
    80    34   101 1   
    81    34   102 1   
    82    35    36 1   
    83    35   103 1   
    84    35   104 1   
    85    36    37 1   
    86    36   105 1   
    87    36   106 1   
    88    37    38 1   
    89    37   107 1   
    90    37   108 1   
    91    38    39 1   
    92    38   109 1   
    93    38   110 1   
    94    39    40 1   
    95    39   111 1   
    96    39   112 1   
    97    40    41 1   
    98    40   113 1   
    99    40   114 1   
   100    41    42 1   
   101    41   115 1   
   102    41   116 1   
   103    42    43 1   
   104    42   117 1   
   105    42   118 1   
   106    43    44 1   
   107    43   119 1   
   108    43   120 1   
   109    44    45 1   
   110    44   121 1   
   111    44   122 1   
   112    45    46 1   
   113    45   123 1   
   114    45   124 1   
   115    46    47 1   
   116    46   125 1   
   117    46   126 1   
   118    47    48 1   
   119    47   127 1   
   120    47   128 1   
   121    48    49 1   
   122    48   129 1   
   123    48   130 1   
   124    49    50 1   
   125    49   131 1   
   126    49   132 1   
   127    50    51 1   
   128    50   133 1   
   129    50   134 1   
   130    51    52 1   
   131    51   135 1   
   132    51   136 1   
   133    52    53 1   
   134    52   137 1   
   135    52   138 1   
   136    53    54 1   
   137    53   139 1   
   138    53   140 1   
   139    54    55 1   
   140    54   141 1   
   141    54   142 1   
   142    55   143 1   
   143    55   144 1   
   144    55   145 1   
@<TRIPOS>SUBSTRUCTURE
     1 PC6         1 TEMP              0 ****  ****    0 ROOT
