@<TRIPOS>MOLECULE
PC7
  136   135     1     0     0
SMALL
bcc


@<TRIPOS>ATOM
      1 C48          0.0000     0.0000     0.0000 c3         1 PC7       0.005900
      2 C47          1.5300     0.0000     0.0000 c3         1 PC7      -0.028400
      3 C46          2.0400     0.0000     1.4430 c3         1 PC7      -0.030400
      4 C45          3.5700    -0.0000     1.4430 c3         1 PC7      -0.029400
      5 C44          4.0800    -0.0000     2.8850 c3         1 PC7      -0.029400
      6 C43          5.6100    -0.0000     2.8850 c3         1 PC7      -0.029400
      7 C42          6.1200     0.0010     4.3280 c3         1 PC7      -0.029400
      8 C41          7.6490    -0.0000     4.3280 c3         1 PC7      -0.029400
      9 C40          8.1590     0.0010     5.7700 c3         1 PC7      -0.029400
     10 C39          9.6890    -0.0000     5.7710 c3         1 PC7      -0.029400
     11 C38         10.2000     0.0000     7.2130 c3         1 PC7      -0.029400
     12 C37         11.7300     0.0000     7.2130 c3         1 PC7      -0.029400
     13 C36         12.2390     0.0000     8.6560 c3         1 PC7      -0.029400
     14 C35         13.7690     0.0000     8.6560 c3         1 PC7      -0.027400
     15 C34         14.2790     0.0000    10.0980 c3         1 PC7      -0.030400
     16 C33         15.8100    -0.0000    10.0980 c3         1 PC7      -0.021400
     17 C32         16.3190    -0.0000    11.5410 c3         1 PC7      -0.067400
     18 C31         17.8260     0.0000    11.5410 c          1 PC7       0.698100
     19 O31         18.4310    -0.0000    10.4940 o          1 PC7      -0.595000
     20 O2          18.4970     0.0000    12.7040 os         1 PC7      -0.404900
     21 C2          19.9500    -0.0000    12.7030 c3         1 PC7       0.168100
     22 C1          20.4590    -1.4430    12.7040 c3         1 PC7       0.226400
     23 O3P         20.0810    -2.0810    13.9250 os         1 PC7      -0.443200
     24 P           20.6470    -3.5870    13.8580 p5         1 PC7       0.896800
     25 O1P         19.9040    -4.3870    12.6730 o          1 PC7      -0.662500
     26 O2P         22.1020    -3.5560    13.5960 o          1 PC7      -0.662500
     27 O4P         20.3690    -4.3280    15.2600 os         1 PC7      -0.491200
     28 C4          20.9940    -5.6100    15.1810 c3         1 PC7       0.225400
     29 C5          20.7680    -6.3700    16.4890 c3         1 PC7      -0.033200
     30 N           19.3390    -6.6780    16.6350 n4         1 PC7       0.062200
     31 C7          18.8670    -7.3920    15.4410 c3         1 PC7       0.010433
     32 C8          19.1380    -7.5210    17.8220 c3         1 PC7       0.010433
     33 C6          18.5830    -5.4280    16.7900 c3         1 PC7       0.010433
     34 C3          20.4590     0.7220    13.9520 c3         1 PC7       0.238400
     35 O3          20.0750    -0.0280    15.1350 os         1 PC7      -0.364900
     36 C11         20.4170     0.4190    16.3530 c          1 PC7       0.692100
     37 O11         21.0450     1.4450    16.4660 o          1 PC7      -0.611000
     38 C12         20.0180    -0.3590    17.5810 c3         1 PC7      -0.067400
     39 C13         20.5280     0.3630    18.8300 c3         1 PC7      -0.022400
     40 C14         20.1240    -0.4270    20.0760 c3         1 PC7      -0.028400
     41 C15         20.6330     0.2960    21.3260 c3         1 PC7      -0.028400
     42 C16         20.2280    -0.4950    22.5710 c3         1 PC7      -0.028400
     43 C17         20.7380     0.2270    23.8200 c3         1 PC7      -0.029400
     44 C18         20.3330    -0.5620    25.0670 c3         1 PC7      -0.028400
     45 C19         20.8440     0.1590    26.3160 c3         1 PC7      -0.029400
     46 C20         20.4390    -0.6310    27.5630 c3         1 PC7      -0.029400
     47 C21         20.9490     0.0910    28.8120 c3         1 PC7      -0.029400
     48 C22         20.5430    -0.6990    30.0580 c3         1 PC7      -0.029400
     49 C23         21.0540     0.0230    31.3060 c3         1 PC7      -0.029400
     50 C24         20.6490    -0.7670    32.5530 c3         1 PC7      -0.029400
     51 C25         21.1590    -0.0450    33.8020 c3         1 PC7      -0.028400
     52 C26         20.7540    -0.8350    35.0480 c3         1 PC7       0.005900
     53 H481        -0.3610     0.9020     0.4790 hc         1 PC7       0.000033
     54 H482        -0.3610    -0.8660     0.5410 hc         1 PC7       0.000033
     55 H483        -0.3610    -0.0360    -1.0210 hc         1 PC7       0.000033
     56 H471         1.8910     0.8850    -0.5110 hc         1 PC7       0.011700
     57 H472         1.8910    -0.8850    -0.5110 hc         1 PC7       0.011700
     58 H461         1.6780    -0.8850     1.9530 hc         1 PC7       0.014700
     59 H462         1.6780     0.8850     1.9530 hc         1 PC7       0.014700
     60 H451         3.9310    -0.8840     0.9320 hc         1 PC7       0.014700
     61 H452         3.9310     0.8850     0.9320 hc         1 PC7       0.014700
     62 H441         3.7190    -0.8850     3.3960 hc         1 PC7       0.014200
     63 H442         3.7190     0.8840     3.3960 hc         1 PC7       0.014200
     64 H431         5.9710    -0.8850     2.3750 hc         1 PC7       0.014700
     65 H432         5.9710     0.8840     2.3740 hc         1 PC7       0.014700
     66 H421         5.7590     0.8860     4.8380 hc         1 PC7       0.014200
     67 H422         5.7580    -0.8830     4.8390 hc         1 PC7       0.014200
     68 H411         8.0100    -0.8860     3.8180 hc         1 PC7       0.014700
     69 H412         8.0110     0.8830     3.8160 hc         1 PC7       0.014700
     70 H401         7.7990     0.8860     6.2800 hc         1 PC7       0.013700
     71 H402         7.7980    -0.8830     6.2820 hc         1 PC7       0.013700
     72 H391        10.0510     0.8840     5.2590 hc         1 PC7       0.014700
     73 H392        10.0490    -0.8850     5.2600 hc         1 PC7       0.014700
     74 H381         9.8390    -0.8840     7.7240 hc         1 PC7       0.013700
     75 H382         9.8390     0.8850     7.7230 hc         1 PC7       0.013700
     76 H371        12.0910     0.8850     6.7020 hc         1 PC7       0.015700
     77 H372        12.0910    -0.8840     6.7020 hc         1 PC7       0.015700
     78 H361        11.8780     0.8850     9.1660 hc         1 PC7       0.012700
     79 H362        11.8780    -0.8840     9.1660 hc         1 PC7       0.012700
     80 H351        14.1300    -0.8840     8.1450 hc         1 PC7       0.017700
     81 H352        14.1300     0.8850     8.1450 hc         1 PC7       0.017700
     82 H341        13.9180    -0.8840    10.6090 hc         1 PC7       0.010700
     83 H342        13.9180     0.8850    10.6090 hc         1 PC7       0.010700
     84 H331        16.1700    -0.8850     9.5870 hc         1 PC7       0.031200
     85 H332        16.1710     0.8840     9.5870 hc         1 PC7       0.031200
     86 H321        15.9580     0.8840    12.0510 hc         1 PC7       0.032200
     87 H322        15.9580    -0.8850    12.0510 hc         1 PC7       0.032200
     88 H2          20.3110     0.5100    11.8190 h1         1 PC7       0.039700
     89 H11         20.0280    -1.9780    11.8670 h1         1 PC7       0.027700
     90 H12         21.5390    -1.4440    12.6150 h1         1 PC7       0.027700
     91 H41         22.0580    -5.4830    15.0160 h1         1 PC7       0.048200
     92 H42         20.5660    -6.1700    14.3580 h1         1 PC7       0.048200
     93 H51         21.0930    -5.7590    17.3230 hx         1 PC7       0.064700
     94 H52         21.3370    -7.2920    16.4740 hx         1 PC7       0.064700
     95 H71         17.9800    -7.9620    15.6880 hx         1 PC7       0.070367
     96 H72         19.6420    -8.0640    15.0920 hx         1 PC7       0.070367
     97 H73         18.6310    -6.6770    14.6620 hx         1 PC7       0.070367
     98 H81         19.6720    -8.4550    17.6950 hx         1 PC7       0.070367
     99 H82         19.5140    -7.0070    18.6980 hx         1 PC7       0.070367
    100 H83         18.0820    -7.7230    17.9470 hx         1 PC7       0.070367
    101 H61         17.6760    -5.6210    17.3490 hx         1 PC7       0.070367
    102 H62         19.1880    -4.7030    17.3210 hx         1 PC7       0.070367
    103 H63         18.3270    -5.0370    15.8120 hx         1 PC7       0.070367
    104 H31         21.5390     0.8000    13.9090 h1         1 PC7       0.010200
    105 H32         20.0270     1.7140    13.9980 h1         1 PC7       0.010200
    106 H121        18.9380    -0.4360    17.6250 hc         1 PC7       0.030200
    107 H122        20.4500    -1.3510    17.5360 hc         1 PC7       0.030200
    108 H131        20.0960     1.3560    18.8750 hc         1 PC7       0.030700
    109 H132        21.6080     0.4410    18.7860 hc         1 PC7       0.030700
    110 H141        20.5560    -1.4190    20.0310 hc         1 PC7       0.006700
    111 H142        19.0440    -0.5050    20.1200 hc         1 PC7       0.006700
    112 H151        21.7130     0.3730    21.2830 hc         1 PC7       0.019200
    113 H152        20.2010     1.2880    21.3710 hc         1 PC7       0.019200
    114 H161        19.1490    -0.5720    22.6150 hc         1 PC7       0.010700
    115 H162        20.6600    -1.4870    22.5260 hc         1 PC7       0.010700
    116 H171        21.8180     0.3040    23.7770 hc         1 PC7       0.016700
    117 H172        20.3070     1.2190    23.8650 hc         1 PC7       0.016700
    118 H181        20.7650    -1.5550    25.0220 hc         1 PC7       0.012200
    119 H182        19.2540    -0.6390    25.1110 hc         1 PC7       0.012200
    120 H191        20.4120     1.1510    26.3620 hc         1 PC7       0.015700
    121 H192        21.9230     0.2360    26.2730 hc         1 PC7       0.015700
    122 H201        19.3590    -0.7090    27.6060 hc         1 PC7       0.013200
    123 H202        20.8710    -1.6230    27.5180 hc         1 PC7       0.013200
    124 H211        20.5160     1.0830    28.8570 hc         1 PC7       0.015700
    125 H212        22.0280     0.1690    28.7690 hc         1 PC7       0.015700
    126 H221        19.4640    -0.7760    30.1010 hc         1 PC7       0.014200
    127 H222        20.9750    -1.6910    30.0120 hc         1 PC7       0.014200
    128 H231        22.1340     0.1000    31.2630 hc         1 PC7       0.014700
    129 H232        20.6220     1.0160    31.3510 hc         1 PC7       0.014700
    130 H241        19.5690    -0.8440    32.5970 hc         1 PC7       0.014200
    131 H242        21.0800    -1.7590    32.5080 hc         1 PC7       0.014200
    132 H251        20.7270     0.9470    33.8480 hc         1 PC7       0.012700
    133 H252        22.2380     0.0320    33.7590 hc         1 PC7       0.012700
    134 H261        21.2050    -1.8190    35.0140 hc         1 PC7       0.000033
    135 H262        19.6750    -0.9320    35.0790 hc         1 PC7       0.000033
    136 H263        21.0950    -0.3120    35.9330 hc         1 PC7       0.000033
@<TRIPOS>BOND
     1     1     2 1   
     2     1    53 1   
     3     1    54 1   
     4     1    55 1   
     5     2     3 1   
     6     2    56 1   
     7     2    57 1   
     8     3     4 1   
     9     3    58 1   
    10     3    59 1   
    11     4     5 1   
    12     4    60 1   
    13     4    61 1   
    14     5     6 1   
    15     5    62 1   
    16     5    63 1   
    17     6     7 1   
    18     6    64 1   
    19     6    65 1   
    20     7     8 1   
    21     7    66 1   
    22     7    67 1   
    23     8     9 1   
    24     8    68 1   
    25     8    69 1   
    26     9    10 1   
    27     9    70 1   
    28     9    71 1   
    29    10    11 1   
    30    10    72 1   
    31    10    73 1   
    32    11    12 1   
    33    11    74 1   
    34    11    75 1   
    35    12    13 1   
    36    12    76 1   
    37    12    77 1   
    38    13    14 1   
    39    13    78 1   
    40    13    79 1   
    41    14    15 1   
    42    14    80 1   
    43    14    81 1   
    44    15    16 1   
    45    15    82 1   
    46    15    83 1   
    47    16    17 1   
    48    16    84 1   
    49    16    85 1   
    50    17    18 1   
    51    17    86 1   
    52    17    87 1   
    53    18    19 2   
    54    18    20 1   
    55    20    21 1   
    56    21    22 1   
    57    21    34 1   
    58    21    88 1   
    59    22    23 1   
    60    22    89 1   
    61    22    90 1   
    62    23    24 1   
    63    24    25 1   
    64    24    26 1   
    65    24    27 1   
    66    27    28 1   
    67    28    29 1   
    68    28    91 1   
    69    28    92 1   
    70    29    30 1   
    71    29    93 1   
    72    29    94 1   
    73    30    31 1   
    74    30    32 1   
    75    30    33 1   
    76    31    95 1   
    77    31    96 1   
    78    31    97 1   
    79    32    98 1   
    80    32    99 1   
    81    32   100 1   
    82    33   101 1   
    83    33   102 1   
    84    33   103 1   
    85    34    35 1   
    86    34   104 1   
    87    34   105 1   
    88    35    36 1   
    89    36    37 2   
    90    36    38 1   
    91    38    39 1   
    92    38   106 1   
    93    38   107 1   
    94    39    40 1   
    95    39   108 1   
    96    39   109 1   
    97    40    41 1   
    98    40   110 1   
    99    40   111 1   
   100    41    42 1   
   101    41   112 1   
   102    41   113 1   
   103    42    43 1   
   104    42   114 1   
   105    42   115 1   
   106    43    44 1   
   107    43   116 1   
   108    43   117 1   
   109    44    45 1   
   110    44   118 1   
   111    44   119 1   
   112    45    46 1   
   113    45   120 1   
   114    45   121 1   
   115    46    47 1   
   116    46   122 1   
   117    46   123 1   
   118    47    48 1   
   119    47   124 1   
   120    47   125 1   
   121    48    49 1   
   122    48   126 1   
   123    48   127 1   
   124    49    50 1   
   125    49   128 1   
   126    49   129 1   
   127    50    51 1   
   128    50   130 1   
   129    50   131 1   
   130    51    52 1   
   131    51   132 1   
   132    51   133 1   
   133    52   134 1   
   134    52   135 1   
   135    52   136 1   
@<TRIPOS>SUBSTRUCTURE
     1 PC7         1 TEMP              0 ****  ****    0 ROOT
