@<TRIPOS>MOLECULE
PC8
   82    81     1     0     0
SMALL
bcc


@<TRIPOS>ATOM
      1 O1           0.0000     0.0000     0.0000 o          1 PC8      -0.662500
      2 O2           2.1040    -1.2140    -0.6880 o          1 PC8      -0.662500
      3 P1           1.6100     0.0000     0.0000 p5         1 PC8       0.897800
      4 O3           2.1460     0.0000     1.5180 os         1 PC8      -0.491200
      5 C1           1.7400    -1.2390     2.1000 c3         1 PC8       0.226400
      6 C2           2.2200    -1.3050     3.5510 c3         1 PC8      -0.033200
      7 N1           1.5170    -0.2890     4.3460 n4         1 PC8       0.061200
      8 C3           0.0660    -0.4640     4.1900 c3         1 PC8       0.010433
      9 C4           1.8790    -0.4380     5.7620 c3         1 PC8       0.010433
     10 C5           1.9020     1.0500     3.8800 c3         1 PC8       0.010433
     11 O4           2.1470     1.3150    -0.7590 os         1 PC8      -0.443200
     12 C6           1.7400     1.2000    -2.1240 c3         1 PC8       0.225400
     13 C7           2.2200     2.4230    -2.9050 c3         1 PC8       0.169100
     14 C8           1.7120     3.6960    -2.2220 c3         1 PC8       0.238400
     15 O5           2.1290     3.6970    -0.8310 os         1 PC8      -0.362900
     16 C9           1.7930     4.7220    -0.0320 c          1 PC8       0.691100
     17 O6           1.1470     5.6440    -0.4700 o          1 PC8      -0.610000
     18 C10          2.2240     4.7240     1.4120 c3         1 PC8      -0.065400
     19 C11          1.7180     5.9960     2.0940 c3         1 PC8      -0.023400
     20 C12          2.1550     5.9970     3.5600 c3         1 PC8      -0.027400
     21 C13          1.6470     7.2690     4.2430 c3         1 PC8      -0.028400
     22 C14          2.0850     7.2700     5.7090 c3         1 PC8      -0.029400
     23 C15          1.5770     8.5430     6.3910 c3         1 PC8      -0.028400
     24 C16          2.0150     8.5440     7.8580 c3         1 PC8       0.006900
     25 O7           3.6720     2.4380    -2.9370 os         1 PC8      -0.404900
     26 C17          4.3270     1.8230    -3.9340 c          1 PC8       0.698100
     27 O8           3.7090     1.2590    -4.8050 o          1 PC8      -0.596000
     28 C18          5.8340     1.8380    -3.9680 c3         1 PC8      -0.068400
     29 C19          6.3240     1.0730    -5.1990 c3         1 PC8      -0.021400
     30 C20          7.8530     1.0870    -5.2330 c3         1 PC8      -0.029400
     31 C21          8.3440     0.3210    -6.4630 c3         1 PC8      -0.027400
     32 C22          9.8730     0.3360    -6.4970 c3         1 PC8      -0.030400
     33 C23         10.3630    -0.4290    -7.7280 c3         1 PC8      -0.028400
     34 C24         11.8930    -0.4140    -7.7620 c3         1 PC8       0.006900
     35 H1           0.6590    -1.3140     2.0730 h1         1 PC8       0.048200
     36 H2           2.1720    -2.0600     1.5400 h1         1 PC8       0.048200
     37 H3           3.2860    -1.1170     3.5880 hx         1 PC8       0.064200
     38 H4           2.0130    -2.2880     3.9560 hx         1 PC8       0.064200
     39 H5          -0.2600     0.0210     3.2780 hx         1 PC8       0.070700
     40 H6          -0.4440    -0.0200     5.0370 hx         1 PC8       0.070700
     41 H7          -0.1670    -1.5200     4.1420 hx         1 PC8       0.070700
     42 H8           1.5810    -1.4200     6.1090 hx         1 PC8       0.070700
     43 H9           1.3710     0.3200     6.3460 hx         1 PC8       0.070700
     44 H10          2.9500    -0.3240     5.8750 hx         1 PC8       0.070700
     45 H11          2.9180     1.0240     3.5060 hx         1 PC8       0.070700
     46 H12          1.2330     1.3620     3.0870 hx         1 PC8       0.070700
     47 H13          1.8380     1.7510     4.7040 hx         1 PC8       0.070700
     48 H14          0.6590     1.1400    -2.1740 h1         1 PC8       0.028200
     49 H15          2.1710     0.3040    -2.5550 h1         1 PC8       0.028200
     50 H16          1.8370     2.3790    -3.9170 h1         1 PC8       0.039700
     51 H17          0.6310     3.7270    -2.2760 h1         1 PC8       0.010200
     52 H18          2.1240     4.5630    -2.7230 h1         1 PC8       0.010200
     53 H19          1.8120     3.8570     1.9130 hc         1 PC8       0.027700
     54 H20          3.3060     4.6920     1.4660 hc         1 PC8       0.027700
     55 H21          2.1310     6.8630     1.5940 hc         1 PC8       0.031700
     56 H22          0.6360     6.0290     2.0400 hc         1 PC8       0.031700
     57 H23          3.2360     5.9650     3.6150 hc         1 PC8       0.004700
     58 H24          1.7420     5.1290     4.0610 hc         1 PC8       0.004700
     59 H25          0.5650     7.3010     4.1890 hc         1 PC8       0.019700
     60 H26          2.0590     8.1370     3.7420 hc         1 PC8       0.019700
     61 H27          3.1660     7.2390     5.7630 hc         1 PC8       0.009700
     62 H28          1.6730     6.4030     6.2100 hc         1 PC8       0.009700
     63 H29          1.9890     9.4100     5.8900 hc         1 PC8       0.014700
     64 H30          0.4960     8.5740     6.3380 hc         1 PC8       0.014700
     65 H31          1.6650     9.4500     8.3380 hc         1 PC8      -0.000633
     66 H32          1.5940     7.6830     8.3610 hc         1 PC8      -0.000633
     67 H33          3.0960     8.5010     7.9120 hc         1 PC8      -0.000633
     68 H34          6.2200     1.3670    -3.0720 hc         1 PC8       0.032700
     69 H35          6.1830     2.8630    -4.0160 hc         1 PC8       0.032700
     70 H36          5.9730     0.0490    -5.1510 hc         1 PC8       0.030200
     71 H37          5.9380     1.5450    -6.0940 hc         1 PC8       0.030200
     72 H38          8.2040     2.1110    -5.2810 hc         1 PC8       0.011200
     73 H39          8.2380     0.6150    -4.3370 hc         1 PC8       0.011200
     74 H40          7.9590     0.7930    -7.3590 hc         1 PC8       0.017200
     75 H41          7.9940    -0.7030    -6.4150 hc         1 PC8       0.017200
     76 H42         10.2230     1.3600    -6.5450 hc         1 PC8       0.013200
     77 H43         10.2590    -0.1350    -5.6010 hc         1 PC8       0.013200
     78 H44          9.9780     0.0430    -8.6230 hc         1 PC8       0.012700
     79 H45         10.0130    -1.4530    -7.6790 hc         1 PC8       0.012700
     80 H46         12.2400    -0.9620    -8.6290 hc         1 PC8      -0.000967
     81 H47         12.2430     0.6100    -7.8170 hc         1 PC8      -0.000967
     82 H48         12.2790    -0.8790    -6.8630 hc         1 PC8      -0.000967
@<TRIPOS>BOND
     1     1     3 1   
     2     2     3 1   
     3     3     4 1   
     4     3    11 1   
     5     4     5 1   
     6     5     6 1   
     7     5    35 1   
     8     5    36 1   
     9     6     7 1   
    10     6    37 1   
    11     6    38 1   
    12     7     8 1   
    13     7     9 1   
    14     7    10 1   
    15     8    39 1   
    16     8    40 1   
    17     8    41 1   
    18     9    42 1   
    19     9    43 1   
    20     9    44 1   
    21    10    45 1   
    22    10    46 1   
    23    10    47 1   
    24    11    12 1   
    25    12    13 1   
    26    12    48 1   
    27    12    49 1   
    28    13    14 1   
    29    13    25 1   
    30    13    50 1   
    31    14    15 1   
    32    14    51 1   
    33    14    52 1   
    34    15    16 1   
    35    16    17 2   
    36    16    18 1   
    37    18    19 1   
    38    18    53 1   
    39    18    54 1   
    40    19    20 1   
    41    19    55 1   
    42    19    56 1   
    43    20    21 1   
    44    20    57 1   
    45    20    58 1   
    46    21    22 1   
    47    21    59 1   
    48    21    60 1   
    49    22    23 1   
    50    22    61 1   
    51    22    62 1   
    52    23    24 1   
    53    23    63 1   
    54    23    64 1   
    55    24    65 1   
    56    24    66 1   
    57    24    67 1   
    58    25    26 1   
    59    26    27 2   
    60    26    28 1   
    61    28    29 1   
    62    28    68 1   
    63    28    69 1   
    64    29    30 1   
    65    29    70 1   
    66    29    71 1   
    67    30    31 1   
    68    30    72 1   
    69    30    73 1   
    70    31    32 1   
    71    31    74 1   
    72    31    75 1   
    73    32    33 1   
    74    32    76 1   
    75    32    77 1   
    76    33    34 1   
    77    33    78 1   
    78    33    79 1   
    79    34    80 1   
    80    34    81 1   
    81    34    82 1   
@<TRIPOS>SUBSTRUCTURE
     1 PC8         1 TEMP              0 ****  ****    0 ROOT
