@<TRIPOS>MOLECULE
PC9
  136   135     1     0     0
SMALL
bcc


@<TRIPOS>ATOM
      1 C48          0.0000     0.0000     0.0000 c3         1 PC9       0.005900
      2 C47          1.5300     0.0000     0.0000 c3         1 PC9      -0.028400
      3 C46          2.0400     0.0000     1.4430 c3         1 PC9      -0.030400
      4 C45          3.5700     0.0010     1.4430 c3         1 PC9      -0.029400
      5 C44          4.0790     0.0010     2.8860 c3         1 PC9      -0.029400
      6 C43          5.6090     0.0020     2.8860 c3         1 PC9      -0.029400
      7 C42          6.1190     0.0020     4.3290 c3         1 PC9      -0.029400
      8 C41          7.6490     0.0030     4.3300 c3         1 PC9      -0.029400
      9 C40          8.1590     0.0030     5.7720 c3         1 PC9      -0.026400
     10 C39          9.6880     0.0030     5.7720 c3         1 PC9      -0.035400
     11 C38         10.1990     0.0040     7.2150 c3         1 PC9      -0.048400
     12 C37         11.7290     0.0040     7.2150 c3         1 PC9       0.111700
     13 Br2         12.3840    -1.6760     6.4310 br         1 PC9      -0.213400
     14 C36         12.2380     0.1300     8.6520 c3         1 PC9       0.115700
     15 Br1         11.5840    -1.3890     9.7150 br         1 PC9      -0.221400
     16 C35         13.7680     0.1310     8.6520 c3         1 PC9      -0.047400
     17 C34         14.2780     0.3810    10.0730 c3         1 PC9      -0.036400
     18 C33         15.8080     0.3810    10.0730 c3         1 PC9      -0.018400
     19 C32         16.3170     0.6320    11.4940 c3         1 PC9      -0.067400
     20 C31         17.8240     0.6330    11.4950 c          1 PC9       0.700100
     21 O31         18.4290     0.4520    10.4640 o          1 PC9      -0.597000
     22 O2          18.4960     0.8350    12.6390 os         1 PC9      -0.402900
     23 C2          19.9470     0.8350    12.6400 c3         1 PC9       0.168100
     24 C1          20.4570     2.2560    12.3890 c3         1 PC9       0.225400
     25 O3P         20.0780     3.0970    13.4810 os         1 PC9      -0.444200
     26 P           20.6430     4.5680    13.1530 p5         1 PC9       0.893800
     27 O1P         22.0990     4.4920    12.9000 o          1 PC9      -0.660000
     28 O2P         19.9010     5.1490    11.8470 o          1 PC9      -0.660000
     29 O4P         20.3660     5.5420    14.4060 os         1 PC9      -0.490200
     30 C4          20.9910     6.7910    14.1040 c3         1 PC9       0.226400
     31 C5          20.7640     7.7670    15.2610 c3         1 PC9      -0.034200
     32 N           21.4780     7.2880    16.4520 n4         1 PC9       0.064200
     33 C7          22.8930     7.0750    16.1220 c3         1 PC9       0.008767
     34 C8          21.3720     8.2900    17.5210 c3         1 PC9       0.008767
     35 C6          20.8840     6.0240    16.9040 c3         1 PC9       0.008767
     36 C3          20.4570     0.3420    13.9960 c3         1 PC9       0.238400
     37 O3          20.0720     1.2860    15.0300 os         1 PC9      -0.360900
     38 C11         20.4140     1.0570    16.3070 c          1 PC9       0.688100
     39 O11         21.0420     0.0660    16.5970 o          1 PC9      -0.610000
     40 C12         20.0140     2.0360    17.3810 c3         1 PC9      -0.065400
     41 C13         20.5250     1.5430    18.7370 c3         1 PC9      -0.024400
     42 C14         20.1190     2.5370    19.8260 c3         1 PC9      -0.026400
     43 C15         20.6300     2.0440    21.1820 c3         1 PC9      -0.028400
     44 C16         20.2240     3.0380    22.2720 c3         1 PC9      -0.028400
     45 C17         20.7340     2.5450    23.6280 c3         1 PC9      -0.029400
     46 C18         20.3290     3.5390    24.7180 c3         1 PC9      -0.028400
     47 C19         20.8380     3.0450    26.0730 c3         1 PC9      -0.029400
     48 C20         20.4340     4.0400    27.1630 c3         1 PC9      -0.029400
     49 C21         20.9430     3.5470    28.5190 c3         1 PC9      -0.029400
     50 C22         20.5370     4.5410    29.6090 c3         1 PC9      -0.028400
     51 C23         21.0480     4.0470    30.9640 c3         1 PC9      -0.029400
     52 C24         20.6420     5.0410    32.0540 c3         1 PC9      -0.030400
     53 C25         21.1520     4.5490    33.4100 c3         1 PC9      -0.028400
     54 C26         20.7460     5.5430    34.4990 c3         1 PC9       0.006900
     55 H481        -0.3610    -0.8840     0.5110 hc         1 PC9       0.000033
     56 H482        -0.3610     0.8850     0.5100 hc         1 PC9       0.000033
     57 H483        -0.3610    -0.0000    -1.0210 hc         1 PC9       0.000033
     58 H471         1.8910     0.8850    -0.5110 hc         1 PC9       0.011700
     59 H472         1.8910    -0.8850    -0.5110 hc         1 PC9       0.011700
     60 H461         1.6790    -0.8850     1.9540 hc         1 PC9       0.014700
     61 H462         1.6780     0.8840     1.9540 hc         1 PC9       0.014700
     62 H451         3.9310    -0.8830     0.9320 hc         1 PC9       0.014700
     63 H452         3.9300     0.8860     0.9330 hc         1 PC9       0.014700
     64 H441         3.7180    -0.8840     3.3960 hc         1 PC9       0.014200
     65 H442         3.7170     0.8850     3.3970 hc         1 PC9       0.014200
     66 H431         5.9710    -0.8820     2.3760 hc         1 PC9       0.015200
     67 H432         5.9700     0.8870     2.3760 hc         1 PC9       0.015200
     68 H421         5.7580    -0.8830     4.8390 hc         1 PC9       0.014700
     69 H422         5.7570     0.8860     4.8400 hc         1 PC9       0.014700
     70 H411         8.0100     0.8880     3.8190 hc         1 PC9       0.016200
     71 H412         8.0110    -0.8810     3.8190 hc         1 PC9       0.016200
     72 H401         7.7970    -0.8820     6.2830 hc         1 PC9       0.015200
     73 H402         7.7970     0.8870     6.2830 hc         1 PC9       0.015200
     74 H391        10.0490     0.8870     5.2610 hc         1 PC9       0.023700
     75 H392        10.0490    -0.8820     5.2620 hc         1 PC9       0.023700
     76 H381         9.8380     0.8890     7.7250 hc         1 PC9       0.038200
     77 H382         9.8380    -0.8800     7.7260 hc         1 PC9       0.038200
     78 H37         12.0900     0.8410     6.6290 h1         1 PC9       0.054700
     79 H36         11.8760     1.0550     9.0840 h1         1 PC9       0.051700
     80 H351        14.1280     0.9130     7.9960 hc         1 PC9       0.041700
     81 H352        14.1290    -0.8290     8.3030 hc         1 PC9       0.041700
     82 H341        13.9170     1.3410    10.4220 hc         1 PC9       0.020700
     83 H342        13.9170    -0.4010    10.7300 hc         1 PC9       0.020700
     84 H331        16.1690     1.1640     9.4170 hc         1 PC9       0.031700
     85 H332        16.1690    -0.5790     9.7240 hc         1 PC9       0.031700
     86 H321        15.9570    -0.1510    12.1510 hc         1 PC9       0.034200
     87 H322        15.9550     1.5910    11.8440 hc         1 PC9       0.034200
     88 H2          20.3090     0.1790    11.8580 h1         1 PC9       0.039700
     89 H11         20.0250     2.6380    11.4720 h1         1 PC9       0.028200
     90 H12         21.5360     2.2430    12.3020 h1         1 PC9       0.028200
     91 H41         22.0540     6.6380    13.9630 h1         1 PC9       0.048200
     92 H42         20.5620     7.1990    13.1970 h1         1 PC9       0.048200
     93 H51         21.1370     8.7460    14.9850 hx         1 PC9       0.065700
     94 H52         19.7040     7.8320    15.4760 hx         1 PC9       0.065700
     95 H71         23.4770     7.0510    17.0340 hx         1 PC9       0.070478
     96 H72         23.2430     7.8830    15.4900 hx         1 PC9       0.070478
     97 H73         23.0040     6.1330    15.5970 hx         1 PC9       0.070478
     98 H81         21.7890     9.2290    17.1790 hx         1 PC9       0.070478
     99 H82         20.3290     8.4310    17.7820 hx         1 PC9       0.070478
    100 H83         21.9180     7.9480    18.3920 hx         1 PC9       0.070478
    101 H61         19.8150     6.0440    16.7310 hx         1 PC9       0.070478
    102 H62         21.0750     5.8930    17.9630 hx         1 PC9       0.070478
    103 H63         21.3240     5.2010    16.3540 hx         1 PC9       0.070478
    104 H31         21.5360     0.2580    13.9670 h1         1 PC9       0.009700
    105 H32         20.0250    -0.6270    14.2130 h1         1 PC9       0.009700
    106 H121        20.4450     3.0060    17.1640 hc         1 PC9       0.027200
    107 H122        18.9350     2.1190    17.4100 hc         1 PC9       0.027200
    108 H131        21.6050     1.4600    18.7070 hc         1 PC9       0.032200
    109 H132        20.0940     0.5730    18.9540 hc         1 PC9       0.032200
    110 H141        19.0400     2.6190    19.8560 hc         1 PC9       0.004200
    111 H142        20.5500     3.5070    19.6090 hc         1 PC9       0.004200
    112 H151        20.1990     1.0740    21.3990 hc         1 PC9       0.019700
    113 H152        21.7100     1.9610    21.1530 hc         1 PC9       0.019700
    114 H161        20.6550     4.0080    22.0550 hc         1 PC9       0.009700
    115 H162        19.1440     3.1210    22.3010 hc         1 PC9       0.009700
    116 H171        21.8130     2.4610    23.5990 hc         1 PC9       0.016700
    117 H172        20.3020     1.5760    23.8460 hc         1 PC9       0.016700
    118 H181        19.2490     3.6240    24.7460 hc         1 PC9       0.012200
    119 H182        20.7610     4.5090    24.5010 hc         1 PC9       0.012200
    120 H191        20.4060     2.0760    26.2900 hc         1 PC9       0.016200
    121 H192        21.9180     2.9610    26.0440 hc         1 PC9       0.016200
    122 H201        20.8660     5.0090    26.9460 hc         1 PC9       0.013700
    123 H202        19.3540     4.1240    27.1920 hc         1 PC9       0.013700
    124 H211        20.5110     2.5770    28.7350 hc         1 PC9       0.015200
    125 H212        22.0220     3.4630    28.4900 hc         1 PC9       0.015200
    126 H221        20.9690     5.5110    29.3920 hc         1 PC9       0.014200
    127 H222        19.4580     4.6240    29.6390 hc         1 PC9       0.014200
    128 H231        22.1270     3.9640    30.9350 hc         1 PC9       0.015200
    129 H232        20.6160     3.0770    31.1810 hc         1 PC9       0.015200
    130 H241        19.5620     5.1240    32.0830 hc         1 PC9       0.014200
    131 H242        21.0720     6.0110    31.8370 hc         1 PC9       0.014200
    132 H251        20.7220     3.5790    33.6270 hc         1 PC9       0.012200
    133 H252        22.2320     4.4660    33.3810 hc         1 PC9       0.012200
    134 H261        21.1080     5.1940    35.4590 hc         1 PC9       0.000367
    135 H262        21.1770     6.5130    34.2820 hc         1 PC9       0.000367
    136 H263        19.6670     5.6250    34.5290 hc         1 PC9       0.000367
@<TRIPOS>BOND
     1     1     2 1   
     2     1    55 1   
     3     1    56 1   
     4     1    57 1   
     5     2     3 1   
     6     2    58 1   
     7     2    59 1   
     8     3     4 1   
     9     3    60 1   
    10     3    61 1   
    11     4     5 1   
    12     4    62 1   
    13     4    63 1   
    14     5     6 1   
    15     5    64 1   
    16     5    65 1   
    17     6     7 1   
    18     6    66 1   
    19     6    67 1   
    20     7     8 1   
    21     7    68 1   
    22     7    69 1   
    23     8     9 1   
    24     8    70 1   
    25     8    71 1   
    26     9    10 1   
    27     9    72 1   
    28     9    73 1   
    29    10    11 1   
    30    10    74 1   
    31    10    75 1   
    32    11    12 1   
    33    11    76 1   
    34    11    77 1   
    35    12    13 1   
    36    12    14 1   
    37    12    78 1   
    38    14    15 1   
    39    14    16 1   
    40    14    79 1   
    41    16    17 1   
    42    16    80 1   
    43    16    81 1   
    44    17    18 1   
    45    17    82 1   
    46    17    83 1   
    47    18    19 1   
    48    18    84 1   
    49    18    85 1   
    50    19    20 1   
    51    19    86 1   
    52    19    87 1   
    53    20    21 2   
    54    20    22 1   
    55    22    23 1   
    56    23    24 1   
    57    23    36 1   
    58    23    88 1   
    59    24    25 1   
    60    24    89 1   
    61    24    90 1   
    62    25    26 1   
    63    26    27 1   
    64    26    28 1   
    65    26    29 1   
    66    29    30 1   
    67    30    31 1   
    68    30    91 1   
    69    30    92 1   
    70    31    32 1   
    71    31    93 1   
    72    31    94 1   
    73    32    33 1   
    74    32    34 1   
    75    32    35 1   
    76    33    95 1   
    77    33    96 1   
    78    33    97 1   
    79    34    98 1   
    80    34    99 1   
    81    34   100 1   
    82    35   101 1   
    83    35   102 1   
    84    35   103 1   
    85    36    37 1   
    86    36   104 1   
    87    36   105 1   
    88    37    38 1   
    89    38    39 2   
    90    38    40 1   
    91    40    41 1   
    92    40   106 1   
    93    40   107 1   
    94    41    42 1   
    95    41   108 1   
    96    41   109 1   
    97    42    43 1   
    98    42   110 1   
    99    42   111 1   
   100    43    44 1   
   101    43   112 1   
   102    43   113 1   
   103    44    45 1   
   104    44   114 1   
   105    44   115 1   
   106    45    46 1   
   107    45   116 1   
   108    45   117 1   
   109    46    47 1   
   110    46   118 1   
   111    46   119 1   
   112    47    48 1   
   113    47   120 1   
   114    47   121 1   
   115    48    49 1   
   116    48   122 1   
   117    48   123 1   
   118    49    50 1   
   119    49   124 1   
   120    49   125 1   
   121    50    51 1   
   122    50   126 1   
   123    50   127 1   
   124    51    52 1   
   125    51   128 1   
   126    51   129 1   
   127    52    53 1   
   128    52   130 1   
   129    52   131 1   
   130    53    54 1   
   131    53   132 1   
   132    53   133 1   
   133    54   134 1   
   134    54   135 1   
   135    54   136 1   
@<TRIPOS>SUBSTRUCTURE
     1 PC9         1 TEMP              0 ****  ****    0 ROOT
