@<TRIPOS>MOLECULE
molecule
   34    35     1     0     0
SMALL
bcc


@<TRIPOS>ATOM
      1 C1           0.0000     0.0000     0.0000 cp         1 PCB       0.007000
      2 C2           1.3940     0.0000     0.0000 ca         1 PCB       0.025400
      3 Cl2          2.2650    -0.0010    -1.5020 cl         1 PCB      -0.069400
      4 C3           2.0830     0.0000     1.1980 ca         1 PCB      -0.010000
      5 C4           1.3910     0.0010     2.3960 ca         1 PCB      -0.277000
      6 C5           0.0080    -0.0030     2.4010 ca         1 PCB       0.102900
      7 Cl5         -0.8530    -0.0040     3.9090 cl         1 PCB      -0.079400
      8 C6          -0.6910     0.0010     1.2080 ca         1 PCB      -0.115000
      9 S            2.2750     0.0010     3.9190 sy         1 PCB       1.194300
     10 O1           3.6280     0.0920     3.4980 o          1 PCB      -0.604800
     11 O2           1.7660    -1.1490     4.5790 o          1 PCB      -0.604800
     12 CM           1.7190     1.5310     4.7190 c3         1 PCB      -0.226300
     13 C1'         -0.7440     0.0010    -1.2830 cp         1 PCB       0.007000
     14 C2'         -0.5690    -1.0410    -2.1930 ca         1 PCB       0.025400
     15 Cl2'         0.5150    -2.3450    -1.8240 cl         1 PCB      -0.069400
     16 C3'         -1.2680    -1.0380    -3.3850 ca         1 PCB      -0.010000
     17 C4'         -2.1320     0.0010    -3.6800 ca         1 PCB      -0.277000
     18 C5'         -2.3050     1.0390    -2.7820 ca         1 PCB       0.102900
     19 Cl5'        -3.3910     2.3390    -3.1610 cl         1 PCB      -0.079400
     20 C6'         -1.6150     1.0440    -1.5860 ca         1 PCB      -0.115000
     21 S'          -3.0150     0.0010    -5.2040 sy         1 PCB       1.194300
     22 O1'         -2.6440     1.2440    -5.7840 o          1 PCB      -0.604800
     23 O2'         -2.6450    -1.2420    -5.7840 o          1 PCB      -0.604800
     24 CM'         -4.7500     0.0010    -4.6770 c3         1 PCB      -0.226300
     25 H3           3.1660     0.0020     1.2000 ha         1 PCB       0.185000
     26 H6          -1.7740    -0.0010     1.2140 ha         1 PCB       0.159000
     27 HM1          1.3090     2.2000     3.9730 h1         1 PCB       0.104200
     28 HM2          0.9570     1.2980     5.4540 h1         1 PCB       0.104200
     29 HM3          2.5590     2.0080     5.2090 h1         1 PCB       0.104200
     30 H3'         -1.1350    -1.8480    -4.0920 ha         1 PCB       0.185000
     31 H6'         -1.7520     1.8580    -0.8840 ha         1 PCB       0.159000
     32 HM'1        -4.8340    -0.4820    -3.7110 h1         1 PCB       0.104200
     33 HM'2        -5.3480    -0.5370    -5.4030 h1         1 PCB       0.104200
     34 HM'3        -5.1050     1.0220    -4.6030 h1         1 PCB       0.104200
@<TRIPOS>BOND
     1     1     2 ar
     2     1     8 ar
     3     1    13 1
     4     2     3 1
     5     2     4 ar
     6     4     5 ar
     7     4    25 1
     8     5     6 ar
     9     5     9 1
    10     6     7 1
    11     6     8 ar
    12     8    26 1
    13     9    10 2
    14     9    11 2
    15     9    12 1
    16    12    27 1
    17    12    28 1
    18    12    29 1
    19    13    14 ar
    20    13    20 ar
    21    14    15 1
    22    14    16 ar
    23    16    17 ar
    24    16    30 1
    25    17    18 ar
    26    17    21 1
    27    18    19 1
    28    18    20 ar
    29    20    31 1
    30    21    22 2
    31    21    23 2
    32    21    24 1
    33    24    32 1
    34    24    33 1
    35    24    34 1
@<TRIPOS>SUBSTRUCTURE
     1 PCB         1 TEMP              0 ****  ****    0 ROOT
