@<TRIPOS>MOLECULE
PCB
   34    35     1     0     0
SMALL
bcc


@<TRIPOS>ATOM
      1 C1          0.0050    0.0130   -0.0110 cp        1 PCB      0.013000
      2 C2          1.3710    0.3370    0.0300 ca        1 PCB      0.009400
      3 CL2         2.2220    0.7130   -1.3860 cl        1 PCB     -0.050400
      4 C3          2.0480    0.3480    1.2510 ca        1 PCB     -0.026000
      5 C4          1.3980    0.0510    2.4560 ca        1 PCB     -0.338500
      6 C5          0.0320   -0.2610    2.3980 ca        1 PCB      0.117400
      7 CL5        -0.8430   -0.6190    3.8070 cl        1 PCB     -0.055400
      8 C6         -0.6580   -0.2840    1.1830 ca        1 PCB     -0.124000
      9 S           2.3580    0.0550    3.8650 sy        1 PCB      1.388300
     10 O1          3.6730    0.3850    3.5020 o         1 PCB     -0.644300
     11 O2          2.1820   -1.1230    4.5920 o         1 PCB     -0.644300
     12 CM          1.6750    1.3560    4.6960 c3        1 PCB     -0.371300
     13 C1'        -0.7440   -0.0110   -1.2740 cp        1 PCB      0.013000
     14 C2'        -0.8440   -1.1780   -2.0510 ca        1 PCB      0.009400
     15 CL2'       -0.0960   -2.6180   -1.5620 cl        1 PCB     -0.050400
     16 C3'        -1.5650   -1.1610   -3.2460 ca        1 PCB     -0.026000
     17 C4'        -2.2090   -0.0020   -3.7010 ca        1 PCB     -0.338500
     18 C5'        -2.1070    1.1510   -2.9090 ca        1 PCB      0.117400
     19 CL5'       -2.8670    2.5970   -3.3700 cl        1 PCB     -0.055400
     20 C6'        -1.3830    1.1520   -1.7130 ca        1 PCB     -0.124000
     21 S'         -3.0120   -0.1110   -5.2010 sy        1 PCB      1.388300
     22 O1'        -2.6270    0.9280   -6.0490 o         1 PCB     -0.644300
     23 O2'        -2.8590   -1.4170   -5.6890 o         1 PCB     -0.644300
     24 CM'        -4.6120    0.1070   -4.7070 c3        1 PCB     -0.371300
     25 H3          3.1310    0.5940    1.2700 ha        1 PCB      0.191500
     26 H6         -1.7300   -0.5430    1.1610 ha        1 PCB      0.165000
     27 HM1         2.4490    1.8920    5.3060 h1        1 PCB      0.122700
     28 HM2         0.8780    1.0370    5.4140 h1        1 PCB      0.122700
     29 HM3         1.2150    2.1350    4.0420 h1        1 PCB      0.122700
     30 H3'        -1.6270   -2.0850   -3.8570 ha        1 PCB      0.191500
     31 H6'        -1.3080    2.0740   -1.1140 ha        1 PCB      0.165000
     32 HM'1       -4.9400    1.1760   -4.7720 h1        1 PCB      0.122700
     33 HM'2       -4.8250   -0.2230   -3.6620 h1        1 PCB      0.122700
     34 HM'3       -5.3150   -0.4760   -5.3580 h1        1 PCB      0.122700
@<TRIPOS>BOND
     1    1    2 ar  
     2    1    8 ar  
     3    1   13 1   
     4    2    3 1   
     5    2    4 ar  
     6    4    5 ar  
     7    4   25 1   
     8    5    6 ar  
     9    5    9 1   
    10    6    7 1   
    11    6    8 ar  
    12    8   26 1   
    13    9   10 2   
    14    9   11 2   
    15    9   12 1   
    16   12   27 1   
    17   12   28 1   
    18   12   29 1   
    19   13   14 ar  
    20   13   20 ar  
    21   14   15 1   
    22   14   16 ar  
    23   16   17 ar  
    24   16   30 1   
    25   17   18 ar  
    26   17   21 1   
    27   18   19 1   
    28   18   20 ar  
    29   20   31 1   
    30   21   22 2   
    31   21   23 2   
    32   21   24 1   
    33   24   32 1   
    34   24   33 1   
    35   24   34 1   
@<TRIPOS>SUBSTRUCTURE
     1 PCB         1 TEMP              0 ****  ****    0 ROOT
