@<TRIPOS>MOLECULE
molecule
  130   129     1     0     0
SMALL
bcc


@<TRIPOS>ATOM
      1 N            0.0000     0.0000     0.0000 n4         1 PCF      -0.631800
      2 P            4.1950     2.5380     1.3450 p5         1 PCF       1.338800
      3 O11          3.5220     2.5230     2.8340 os         1 PCF      -0.582200
      4 O12          5.6600     2.1720     1.4540 o          1 PCF      -0.768000
      5 O13          3.4030     1.2780     0.6610 os         1 PCF      -0.551200
      6 O14          3.7770     3.8190     0.6540 o          1 PCF      -0.768000
      7 C11          1.9850     1.2540     0.6900 c3         1 PCF       0.183400
      8 C12          1.4850     0.0000     0.0000 c3         1 PCF       0.107800
      9 C13         -0.5450     0.0000     1.4350 c3         1 PCF       0.119767
     10 C14         -0.5440     1.2430    -0.7170 c3         1 PCF       0.119767
     11 C15         -0.5440    -1.2420    -0.7190 c3         1 PCF       0.119767
     12 C1           3.7660     1.4130     3.6910 c3         1 PCF       0.159400
     13 C2           3.0440     1.6160     5.0180 c3         1 PCF       0.136100
     14 C3           1.5400     1.7510     4.8200 c3         1 PCF       0.144400
     15 O31          0.9150     1.9110     6.0960 os         1 PCF      -0.406900
     16 O32         -1.1540     2.0390     5.0800 o          1 PCF      -0.562000
     17 C31         -0.4430     2.0440     6.0770 c          1 PCF       0.647100
     18 C32         -0.9620     2.2070     7.4850 c3         1 PCF      -0.137400
     19 C33         -2.4770     2.3970     7.5280 c3         1 PCF      -0.074400
     20 C34         -3.0810     2.5250     8.9320 c3         1 PCF      -0.076400
     21 C35         -4.5880     2.7830     8.9350 c3         1 PCF      -0.072400
     22 C36         -5.1220     2.9200    10.3620 c3         1 PCF      -0.076400
     23 C37         -6.6160     3.2600    10.4280 c3         1 PCF      -0.077400
     24 C38         -7.1940     3.4660    11.8320 c3         1 PCF      -0.076400
     25 C39         -8.6790     3.8320    11.8370 c3         1 PCF      -0.076400
     26 C40         -9.1900     4.0620    13.2620 c3         1 PCF      -0.077400
     27 C41        -10.6670     4.4630    13.2620 c3         1 PCF      -0.077400
     28 C42        -11.1850     4.6660    14.6870 c3         1 PCF      -0.078400
     29 C43        -12.6700     5.0380    14.7500 c3         1 PCF      -0.077400
     30 O21          3.2790     0.4750     5.8480 os         1 PCF      -0.429900
     31 O22          5.5500     0.8730     5.7740 o          1 PCF      -0.500000
     32 C21          4.5850     0.2200     6.1480 c          1 PCF       0.632100
     33 C22          4.6810    -1.0070     7.0220 c3         1 PCF      -0.134400
     34 C23          6.1260    -1.3660     7.3640 c3         1 PCF      -0.077400
     35 C24          6.2980    -2.5790     8.2880 c3         1 PCF      -0.075400
     36 C25          7.7580    -2.9500     8.5530 c3         1 PCF      -0.073400
     37 C26          7.8590    -4.1760     9.4620 c3         1 PCF      -0.075400
     38 C27          9.2980    -4.6460     9.7000 c3         1 PCF      -0.078400
     39 C28          9.4580    -5.9070    10.5570 c3         1 PCF      -0.076400
     40 C29         10.9110    -6.3480    10.7370 c3         1 PCF      -0.076400
     41 C30         11.0050    -7.6300    11.5680 c3         1 PCF      -0.077400
     42 C47         12.4570    -8.0900    11.7160 c3         1 PCF      -0.077400
     43 C48         12.5530    -9.3560    12.5700 c3         1 PCF      -0.078400
     44 C49         13.9910    -9.8440    12.7780 c3         1 PCF      -0.077400
     45 C50         14.0800   -11.1520    13.5670 c3         1 PCF      -0.077400
     46 C51         15.5170   -11.6360    13.7760 c3         1 PCF      -0.081400
     47 C52         15.6130   -12.9520    14.5330 c3         1 PCF      -0.088100
     48 C44        -13.1670     5.3170    16.1710 c3         1 PCF      -0.077400
     49 C45        -14.6530     5.6870    16.2300 c3         1 PCF      -0.081400
     50 C46        -15.1490     5.9940    17.6350 c3         1 PCF      -0.088100
     51 H111         1.6440     1.2610     1.7180 h1         1 PCF       0.035200
     52 H112         1.5990     2.1270     0.1760 h1         1 PCF       0.035200
     53 H121         1.8470    -0.0200    -1.0210 hx         1 PCF       0.102200
     54 H122         1.8470    -0.8730     0.5300 hx         1 PCF       0.102200
     55 H131        -1.5750    -0.3370     1.4300 hx         1 PCF       0.092367
     56 H132        -0.4960     1.0030     1.8400 hx         1 PCF       0.092367
     57 H133         0.0500    -0.6660     2.0470 hx         1 PCF       0.092367
     58 H141        -0.4840     2.0980    -0.0540 hx         1 PCF       0.092367
     59 H142         0.0450     1.4340    -1.6060 hx         1 PCF       0.092367
     60 H143        -1.5770     1.0750    -0.9970 hx         1 PCF       0.092367
     61 H151        -0.1770    -2.1340    -0.2260 hx         1 PCF       0.092367
     62 H152        -0.2130    -1.2360    -1.7500 hx         1 PCF       0.092367
     63 H153        -1.6270    -1.2320    -0.6870 hx         1 PCF       0.092367
     64 H11          3.4040     0.5070     3.2190 h1         1 PCF       0.049700
     65 H12          4.8310     1.3240     3.8710 h1         1 PCF       0.049700
     66 H21          3.4260     2.5040     5.5060 h1         1 PCF       0.087700
     67 H31          1.1560     0.8600     4.3370 h1         1 PCF       0.051700
     68 H32          1.3310     2.6160     4.2030 h1         1 PCF       0.051700
     69 H321        -0.4870     3.0700     7.9360 hc         1 PCF       0.077200
     70 H322        -0.7030     1.3240     8.0580 hc         1 PCF       0.077200
     71 H331        -2.7220     3.2930     6.9700 hc         1 PCF       0.048700
     72 H332        -2.9400     1.5510     7.0350 hc         1 PCF       0.048700
     73 H341        -2.8870     1.6080     9.4760 hc         1 PCF       0.039700
     74 H342        -2.5900     3.3430     9.4460 hc         1 PCF       0.039700
     75 H351        -4.7930     3.6970     8.3900 hc         1 PCF       0.040700
     76 H352        -5.0910     1.9580     8.4450 hc         1 PCF       0.040700
     77 H361        -4.9570     1.9850    10.8840 hc         1 PCF       0.038700
     78 H362        -4.5670     3.7010    10.8660 hc         1 PCF       0.038700
     79 H371        -6.7800     4.1670     9.8600 hc         1 PCF       0.035700
     80 H372        -7.1660     2.4570     9.9520 hc         1 PCF       0.035700
     81 H381        -6.6410     4.2590    12.3210 hc         1 PCF       0.038200
     82 H382        -7.0620     2.5510    12.3980 hc         1 PCF       0.038200
     83 H391        -8.8230     4.7360    11.2580 hc         1 PCF       0.039200
     84 H392        -9.2440     3.0270    11.3830 hc         1 PCF       0.039200
     85 H401        -8.6080     4.8500    13.7250 hc         1 PCF       0.040200
     86 H402        -9.0700     3.1490    13.8330 hc         1 PCF       0.040200
     87 H411       -10.7840     5.3860    12.7070 hc         1 PCF       0.039700
     88 H412       -11.2470     3.6840    12.7810 hc         1 PCF       0.039700
     89 H421       -10.6100     5.4550    15.1560 hc         1 PCF       0.038200
     90 H422       -11.0350     3.7490    15.2440 hc         1 PCF       0.038200
     91 H431       -13.2500     4.2240    14.3330 hc         1 PCF       0.037200
     92 H432       -12.8310     5.9230    14.1460 hc         1 PCF       0.037200
     93 H221         4.1380    -0.8250     7.9420 hc         1 PCF       0.067200
     94 H222         4.2250    -1.8420     6.5050 hc         1 PCF       0.067200
     95 H231         6.5850    -0.5090     7.8410 hc         1 PCF       0.056200
     96 H232         6.6540    -1.5660     6.4400 hc         1 PCF       0.056200
     97 H241         5.8190    -2.3620     9.2360 hc         1 PCF       0.034700
     98 H242         5.8010    -3.4300     7.8370 hc         1 PCF       0.034700
     99 H251         8.2470    -3.1660     7.6100 hc         1 PCF       0.044700
    100 H252         8.2570    -2.1140     9.0280 hc         1 PCF       0.044700
    101 H261         7.3000    -4.9880     9.0110 hc         1 PCF       0.036200
    102 H262         7.4110    -3.9360    10.4180 hc         1 PCF       0.036200
    103 H271         9.7550    -4.8340     8.7360 hc         1 PCF       0.037700
    104 H272         9.8400    -3.8410    10.1810 hc         1 PCF       0.037700
    105 H281         9.0310    -5.7170    11.5340 hc         1 PCF       0.036200
    106 H282         8.9070    -6.7150    10.0890 hc         1 PCF       0.036200
    107 H291        11.3510    -6.5240     9.7630 hc         1 PCF       0.040700
    108 H292        11.4610    -5.5600    11.2370 hc         1 PCF       0.040700
    109 H301        10.5890    -7.4460    12.5510 hc         1 PCF       0.039200
    110 H302        10.4330    -8.4110    11.0810 hc         1 PCF       0.039200
    111 H471        13.0320    -7.3010    12.1850 hc         1 PCF       0.040200
    112 H472        12.8670    -8.2920    10.7340 hc         1 PCF       0.040200
    113 H481        12.1120    -9.1550    13.5390 hc         1 PCF       0.037700
    114 H482        11.9870   -10.1430    12.0870 hc         1 PCF       0.037700
    115 H491        14.4500    -9.9920    11.8090 hc         1 PCF       0.037700
    116 H492        14.5430    -9.0790    13.3120 hc         1 PCF       0.037700
    117 H501        13.5300   -11.9170    13.0330 hc         1 PCF       0.037700
    118 H502        13.6190   -11.0050    14.5370 hc         1 PCF       0.037700
    119 H511        16.0600   -10.8790    14.3280 hc         1 PCF       0.036700
    120 H512        15.9840   -11.7600    12.8070 hc         1 PCF       0.036700
    121 H521        15.0980   -13.7260    13.9780 hc         1 PCF       0.033367
    122 H522        15.1560   -12.8410    15.5090 hc         1 PCF       0.033367
    123 H523        16.6550   -13.2250    14.6510 hc         1 PCF       0.033367
    124 H441       -13.0060     4.4320    16.7750 hc         1 PCF       0.037700
    125 H442       -12.5890     6.1330    16.5870 hc         1 PCF       0.037700
    126 H451       -15.2310     4.8610    15.8320 hc         1 PCF       0.036700
    127 H452       -14.8180     6.5580    15.6070 hc         1 PCF       0.036700
    128 H461       -15.0020     5.1270    18.2670 hc         1 PCF       0.033367
    129 H462       -16.2030     6.2420    17.6000 hc         1 PCF       0.033367
    130 H463       -14.5940     6.8330    18.0380 hc         1 PCF       0.033367
@<TRIPOS>BOND
     1     1     8 1
     2     1     9 1
     3     1    10 1
     4     1    11 1
     5     2     3 1
     6     2     4 1
     7     2     5 1
     8     2     6 1
     9     3    12 1
    10     5     7 1
    11     7     8 1
    12     7    51 1
    13     7    52 1
    14     8    53 1
    15     8    54 1
    16     9    55 1
    17     9    56 1
    18     9    57 1
    19    10    58 1
    20    10    59 1
    21    10    60 1
    22    11    61 1
    23    11    62 1
    24    11    63 1
    25    12    13 1
    26    12    64 1
    27    12    65 1
    28    13    14 1
    29    13    30 1
    30    13    66 1
    31    14    15 1
    32    14    67 1
    33    14    68 1
    34    15    17 1
    35    16    17 2
    36    17    18 1
    37    18    19 1
    38    18    69 1
    39    18    70 1
    40    19    20 1
    41    19    71 1
    42    19    72 1
    43    20    21 1
    44    20    73 1
    45    20    74 1
    46    21    22 1
    47    21    75 1
    48    21    76 1
    49    22    23 1
    50    22    77 1
    51    22    78 1
    52    23    24 1
    53    23    79 1
    54    23    80 1
    55    24    25 1
    56    24    81 1
    57    24    82 1
    58    25    26 1
    59    25    83 1
    60    25    84 1
    61    26    27 1
    62    26    85 1
    63    26    86 1
    64    27    28 1
    65    27    87 1
    66    27    88 1
    67    28    29 1
    68    28    89 1
    69    28    90 1
    70    29    48 1
    71    29    91 1
    72    29    92 1
    73    30    32 1
    74    31    32 2
    75    32    33 1
    76    33    34 1
    77    33    93 1
    78    33    94 1
    79    34    35 1
    80    34    95 1
    81    34    96 1
    82    35    36 1
    83    35    97 1
    84    35    98 1
    85    36    37 1
    86    36    99 1
    87    36   100 1
    88    37    38 1
    89    37   101 1
    90    37   102 1
    91    38    39 1
    92    38   103 1
    93    38   104 1
    94    39    40 1
    95    39   105 1
    96    39   106 1
    97    40    41 1
    98    40   107 1
    99    40   108 1
   100    41    42 1
   101    41   109 1
   102    41   110 1
   103    42    43 1
   104    42   111 1
   105    42   112 1
   106    43    44 1
   107    43   113 1
   108    43   114 1
   109    44    45 1
   110    44   115 1
   111    44   116 1
   112    45    46 1
   113    45   117 1
   114    45   118 1
   115    46    47 1
   116    46   119 1
   117    46   120 1
   118    47   121 1
   119    47   122 1
   120    47   123 1
   121    48    49 1
   122    48   124 1
   123    48   125 1
   124    49    50 1
   125    49   126 1
   126    49   127 1
   127    50   128 1
   128    50   129 1
   129    50   130 1
@<TRIPOS>SUBSTRUCTURE
     1 PCF         1 TEMP              0 ****  ****    0 ROOT
