@<TRIPOS>MOLECULE
molecule
   36    39     1     0     0
SMALL
bcc


@<TRIPOS>ATOM
      1 PA           0.0000     0.0000     0.0000 p5         1 PCG       1.522500
      2 O1A         -0.5290    -0.1190    -1.5160 oh         1 PCG      -0.694400
      3 O2A         -0.4870     1.2670     0.5870 o          1 PCG      -0.802300
      4 O5'          1.6050     0.0000     0.0000 os         1 PCG      -0.499200
      5 C5'          2.0620     0.0000     1.3590 c3         1 PCG       0.147400
      6 C4'          1.5070    -1.2410     2.0340 c3         1 PCG       0.029100
      7 O4'          1.9150    -1.4490     3.3860 os         1 PCG      -0.376600
      8 C3'         -0.0300    -1.0800     2.1570 c3         1 PCG       0.088100
      9 O3'         -0.5760    -1.2400     0.8630 os         1 PCG      -0.470200
     10 C2'         -0.3670    -2.1970     3.1600 c3         1 PCG       0.117100
     11 O2'         -0.7280    -3.3970     2.4740 oh         1 PCG      -0.564800
     12 C1'          0.9550    -2.3750     3.9440 c3         1 PCG       0.227800
     13 N9           0.7390    -2.0750     5.3620 na         1 PCG      -0.170900
     14 C8           0.8650    -0.8530     5.9560 cc         1 PCG       0.513400
     15 N7           0.5990    -0.9500     7.2250 nd         1 PCG      -0.610000
     16 C5           0.2870    -2.2350     7.5200 cd         1 PCG       0.318800
     17 C6          -0.0790    -2.9120     8.7080 c          1 PCG       0.622000
     18 O6          -0.1660    -2.3130     9.7670 o          1 PCG      -0.518500
     19 N1          -0.3340    -4.2370     8.6380 ns         1 PCG      -0.466400
     20 C2          -0.2280    -4.8960     7.4500 cd         1 PCG       0.453800
     21 N2          -0.4870    -6.2430     7.4110 nz         1 PCG      -0.727600
     22 N3           0.1110    -4.2790     6.3410 nc         1 PCG      -0.554100
     23 C4           0.3720    -2.9680     6.3310 cc         1 PCG       0.016800
     24 HO1A        -0.7900     0.7330    -1.8260 ho         1 PCG       0.487000
     25 H5'1         3.1450    -0.0250     1.3810 h1         1 PCG       0.096700
     26 H5'2         1.6990     0.8850     1.8670 h1         1 PCG       0.096700
     27 H4'          1.7390    -2.1170     1.4400 h1         1 PCG       0.097700
     28 H3'         -0.2810    -0.1080     2.5650 h1         1 PCG       0.108700
     29 H2'         -1.1600    -1.8790     3.8250 h1         1 PCG       0.071700
     30 HO2'        -1.6050    -3.6460     2.7160 ho         1 PCG       0.422000
     31 H1'          1.3160    -3.3900     3.8290 h2         1 PCG       0.113700
     32 H8           1.1450     0.0620     5.4460 h5         1 PCG       0.113100
     33 HN1         -0.6020    -4.7370     9.4630 hn         1 PCG       0.352500
     34 HN21         0.1190    -6.7180     8.0510 hn         1 PCG       0.479133
     35 HN22        -0.3290    -6.5870     6.4850 hn         1 PCG       0.479133
     36 H23         -1.4400    -6.4070     7.6700 hn         1 PCG       0.479133
@<TRIPOS>BOND
     1     1     2 1
     2     1     3 2
     3     1     4 1
     4     1     9 1
     5     2    24 1
     6     4     5 1
     7     5     6 1
     8     5    25 1
     9     5    26 1
    10     6     7 1
    11     6     8 1
    12     6    27 1
    13     7    12 1
    14     8     9 1
    15     8    10 1
    16     8    28 1
    17    10    11 1
    18    10    12 1
    19    10    29 1
    20    11    30 1
    21    12    13 1
    22    12    31 1
    23    13    14 1
    24    13    23 1
    25    14    15 2
    26    14    32 1
    27    15    16 1
    28    16    17 1
    29    16    23 2
    30    17    18 2
    31    17    19 1
    32    19    20 1
    33    19    33 1
    34    20    21 1
    35    20    22 2
    36    21    34 1
    37    21    35 1
    38    22    23 1
    39    36    21 1
@<TRIPOS>SUBSTRUCTURE
     1 PCG         1 TEMP              0 ****  ****    0 ROOT
