@<TRIPOS>MOLECULE
PCH
   44    45     1     0     0
SMALL
bcc


@<TRIPOS>ATOM
      1 N            0.0000     0.0000     0.0000 nz         1 PCH       0.051400
      2 CA           1.4690     0.0000     0.0000 c3         1 PCH      -0.083500
      3 CB           1.9760     0.0000     1.4430 c3         1 PCH      -0.041400
      4 CG           1.4670     1.2500     2.1650 c3         1 PCH      -0.069700
      5 CD1          1.9760     1.2490     3.6080 c3         1 PCH      -0.020900
      6 CD2          1.9770     2.4980     1.4440 c3         1 PCH      -0.020900
      7 CE1          1.4670     2.4980     4.3290 c3         1 PCH      -0.021400
      8 CE2          1.4660     3.7470     2.1660 c3         1 PCH      -0.021400
      9 CZ           1.9760     3.7470     3.6090 c3         1 PCH      -0.025400
     10 CH           1.9780    -1.2490    -0.7200 c3         1 PCH       0.162100
     11 OH           1.5030    -2.4150    -0.0470 oh         1 PCH      -0.600800
     12 CM           1.4690    -1.2480    -2.1630 c3         1 PCH       0.148400
     13 O1           1.9460    -2.4140    -2.8360 os         1 PCH      -0.258900
     14 C1           1.4640    -2.3600    -4.1050 ca         1 PCH       0.140100
     15 C2           1.7560    -3.3650    -5.0240 ca         1 PCH      -0.297800
     16 C3           1.2480    -3.2730    -6.3020 ca         1 PCH       0.461700
     17 N4           0.4970    -2.2480    -6.6590 nb         1 PCH      -0.586000
     18 C5           0.1980    -1.2770    -5.8170 ca         1 PCH       0.461700
     19 C6           0.6630    -1.3000    -4.5180 ca         1 PCH      -0.297800
     20 HN1         -0.3340     0.8800     0.3410 hn         1 PCH       0.234467
     21 HN2         -0.3340    -0.1450    -0.9320 hn         1 PCH       0.234467
     22 HA           1.8300     0.8840    -0.5100 hx         1 PCH       0.103700
     23 HB1          1.6140    -0.8840     1.9530 hc         1 PCH       0.060700
     24 HB2          3.0600    -0.0010     1.4440 hc         1 PCH       0.060700
     25 HG           0.3840     1.2540     2.1670 hc         1 PCH       0.004700
     26 HD11         3.0590     1.2510     3.6070 hc         1 PCH       0.018950
     27 HD12         1.6110     0.3650     4.1170 hc         1 PCH       0.018950
     28 HD21         3.0600     2.4980     1.4460 hc         1 PCH       0.018950
     29 HD22         1.6130     2.4980     0.4230 hc         1 PCH       0.018950
     30 HE11         1.8300     2.4980     5.3490 hc         1 PCH       0.023200
     31 HE12         0.3830     2.4980     4.3260 hc         1 PCH       0.023200
     32 HE21         1.8300     4.6310     1.6560 hc         1 PCH       0.023200
     33 HE22         0.3830     3.7450     2.1670 hc         1 PCH       0.023200
     34 HCZ1         1.6120     4.6300     4.1190 hc         1 PCH       0.029200
     35 HCZ2         3.0600     3.7440     3.6070 hc         1 PCH       0.029200
     36 HH           3.0610    -1.2480    -0.7200 h1         1 PCH       0.059700
     37 HO           2.1810    -3.0700    -0.0360 ho         1 PCH       0.447000
     38 HM1          1.8310    -0.3630    -2.6730 h1         1 PCH       0.015700
     39 HM2          0.3860    -1.2480    -2.1640 h1         1 PCH       0.015700
     40 HC2          2.3720    -4.2080    -4.7370 ha         1 PCH       0.121500
     41 HC3          1.4700    -4.0510    -7.0240 h4         1 PCH      -0.010900
     42 HC5         -0.4240    -0.4550    -6.1490 h4         1 PCH      -0.010900
     43 HC6          0.4140    -0.4990    -3.8320 ha         1 PCH       0.121500
     44 HN3         -0.3340    -0.7500     0.5730 hn         1 PCH       0.234467
@<TRIPOS>BOND
     1     1     2 1   
     2     1    20 1   
     3     1    21 1   
     4     1    44 1   
     5     2     3 1   
     6     2    10 1   
     7     2    22 1   
     8     3     4 1   
     9     3    23 1   
    10     3    24 1   
    11     4     5 1   
    12     4     6 1   
    13     4    25 1   
    14     5     7 1   
    15     5    26 1   
    16     5    27 1   
    17     6     8 1   
    18     6    28 1   
    19     6    29 1   
    20     7     9 1   
    21     7    30 1   
    22     7    31 1   
    23     8     9 1   
    24     8    32 1   
    25     8    33 1   
    26     9    34 1   
    27     9    35 1   
    28    10    11 1   
    29    10    12 1   
    30    10    36 1   
    31    11    37 1   
    32    12    13 1   
    33    12    38 1   
    34    12    39 1   
    35    13    14 1   
    36    14    15 ar  
    37    14    19 ar  
    38    15    16 ar  
    39    15    40 1   
    40    16    17 ar  
    41    16    41 1   
    42    17    18 ar  
    43    18    19 ar  
    44    18    42 1   
    45    19    43 1   
@<TRIPOS>SUBSTRUCTURE
     1 PCH         1 TEMP              0 ****  ****    0 ROOT
