@<TRIPOS>MOLECULE
molecule
   13    13     1     0     0
SMALL
bcc


@<TRIPOS>ATOM
      1 O1           0.0000     0.0000     0.0000 oh         1 PCI      -0.491100
      2 C1           1.3600     0.0000     0.0000 ca         1 PCI       0.135100
      3 C2           2.0540     0.0000     1.2010 ca         1 PCI       0.011400
      4 Cl1          1.1880    -0.0000     2.7050 cl         1 PCI      -0.046400
      5 C3           3.4370    -0.0000     1.1990 ca         1 PCI       0.045400
      6 Cl2          4.3060    -0.0000     2.7020 cl         1 PCI      -0.044400
      7 C4           4.1280    -0.0010     0.0000 ca         1 PCI       0.032400
      8 Cl3          5.8640    -0.0010     0.0000 cl         1 PCI      -0.044400
      9 C5           3.4370    -0.0010    -1.1990 ca         1 PCI       0.045400
     10 Cl4          4.3060    -0.0030    -2.7020 cl         1 PCI      -0.044400
     11 C6           2.0540    -0.0060    -1.2010 ca         1 PCI       0.011400
     12 Cl5          1.1880    -0.0080    -2.7050 cl         1 PCI      -0.046400
     13 HO1         -0.3140     0.8890    -0.0020 ho         1 PCI       0.434000
@<TRIPOS>BOND
     1     1     2 1
     2     1    13 1
     3     2     3 ar
     4     2    11 ar
     5     3     4 1
     6     3     5 ar
     7     5     6 1
     8     5     7 ar
     9     7     8 1
    10     7     9 ar
    11     9    10 1
    12     9    11 ar
    13    11    12 1
@<TRIPOS>SUBSTRUCTURE
     1 PCI         1 TEMP              0 ****  ****    0 ROOT
