@<TRIPOS>MOLECULE
PCI
   13    13     1     0     0
SMALL
bcc


@<TRIPOS>ATOM
      1 O1         -0.0100    0.1880    0.1990 oh        1 PCI     -0.468100
      2 C1          1.3540    0.1230    0.0920 ca        1 PCI      0.162100
      3 C2          2.0850    0.0210    1.2960 ca        1 PCI     -0.037600
      4 CL1         1.2860   -0.0170    2.7870 cl        1 PCI     -0.037900
      5 C3          3.4850   -0.0480    1.2450 ca        1 PCI      0.058400
      6 CL2         4.3720   -0.1700    2.6810 cl        1 PCI     -0.027900
      7 C4          4.1560   -0.0170    0.0110 ca        1 PCI     -0.010600
      8 CL3         5.8470   -0.1020   -0.0360 cl        1 PCI     -0.032400
      9 C5          3.4270    0.0840   -1.1830 ca        1 PCI      0.058400
     10 CL4         4.2320    0.1210   -2.6700 cl        1 PCI     -0.027900
     11 C6          2.0270    0.1540   -1.1440 ca        1 PCI     -0.037600
     12 CL5         1.1360    0.2770   -2.5850 cl        1 PCI     -0.037900
     13 HO1        -0.3890    0.2550   -0.6940 ho        1 PCI      0.440000
@<TRIPOS>BOND
     1    1    2 1   
     2    1   13 1   
     3    2    3 ar  
     4    2   11 ar  
     5    3    4 1   
     6    3    5 ar  
     7    5    6 1   
     8    5    7 ar  
     9    7    8 1   
    10    7    9 ar  
    11    9   10 1   
    12    9   11 ar  
    13   11   12 1   
@<TRIPOS>SUBSTRUCTURE
     1 PCI         1 TEMP              0 ****  ****    0 ROOT
