@<TRIPOS>MOLECULE
PCJ
  167   166     1     0     0
SMALL
bcc


@<TRIPOS>ATOM
      1 CB           0.0000     0.0000     0.0000 c3         1 PCJ       0.069700
      2 SG          -0.6050     1.5490     0.7240 ss         1 PCJ      -0.392200
      3 C            2.0400    -1.2480    -0.7220 c3         1 PCJ       0.201400
      4 O            1.4710    -2.4120    -0.1200 oh         1 PCJ      -0.603800
      5 N            2.0180     0.0000     1.3810 ns         1 PCJ      -0.184900
      6 CA           1.5300     0.0000     0.0000 c3         1 PCJ       0.038700
      7 C1          -2.4080     1.3630     0.6370 c3         1 PCJ       0.079700
      8 C2          -3.0780     2.6090     1.2190 c3         1 PCJ       0.192100
      9 O2          -2.6740     2.7740     2.6040 os         1 PCJ      -0.399900
     10 C3          -4.5980     2.4520     1.1460 c3         1 PCJ       0.199400
     11 O3          -5.2340     3.6810     1.5880 os         1 PCJ      -0.394900
     12 C11        -23.0500    12.1500     4.4970 c3         1 PCJ       0.005900
     13 C12        -22.3100    10.8910     4.0450 c3         1 PCJ      -0.028400
     14 C13        -20.8010    11.1220     4.1450 c3         1 PCJ      -0.030400
     15 C14        -20.0610     9.8620     3.6920 c3         1 PCJ      -0.029400
     16 C15        -18.5520    10.0940     3.7920 c3         1 PCJ      -0.029400
     17 C16        -17.8110     8.8330     3.3400 c3         1 PCJ      -0.029400
     18 C17        -16.3020     9.0650     3.4410 c3         1 PCJ      -0.029400
     19 C18        -15.5620     7.8050     2.9870 c3         1 PCJ      -0.029400
     20 C19        -14.0530     8.0360     3.0880 c3         1 PCJ      -0.029400
     21 C20        -13.3120     6.7760     2.6350 c3         1 PCJ      -0.028400
     22 C21        -11.8030     7.0070     2.7350 c3         1 PCJ      -0.029400
     23 C22        -11.0630     5.7470     2.2830 c3         1 PCJ      -0.027400
     24 C23         -9.5540     5.9790     2.3830 c3         1 PCJ      -0.030400
     25 C24         -8.8140     4.7180     1.9300 c3         1 PCJ      -0.021400
     26 C25         -7.3050     4.9500     2.0300 c3         1 PCJ      -0.068400
     27 C26         -6.5750     3.7090     1.5850 c          1 PCJ       0.692100
     28 O28         -7.1990     2.7380     1.2240 o          1 PCJ      -0.593000
     29 C31          0.5450    16.5670    16.6420 c3         1 PCJ       0.006900
     30 C32          0.1270    16.3150    15.1910 c3         1 PCJ      -0.028400
     31 C33          0.1510    14.8110    14.9070 c3         1 PCJ      -0.030400
     32 C34         -0.2660    14.5590    13.4580 c3         1 PCJ      -0.029400
     33 C35         -0.2430    13.0550    13.1740 c3         1 PCJ      -0.029400
     34 C36         -0.6600    12.8040    11.7240 c3         1 PCJ      -0.029400
     35 C37         -0.6360    11.3000    11.4410 c3         1 PCJ      -0.029400
     36 C38         -1.0540    11.0470     9.9910 c3         1 PCJ      -0.029400
     37 C39         -1.0300     9.5440     9.7080 c3         1 PCJ      -0.029400
     38 C40         -1.4470     9.2920     8.2570 c3         1 PCJ      -0.029400
     39 C41         -1.4240     7.7880     7.9740 c3         1 PCJ      -0.029400
     40 C42         -1.8410     7.5360     6.5240 c3         1 PCJ      -0.027400
     41 C43         -1.8170     6.0320     6.2410 c3         1 PCJ      -0.030400
     42 C44         -2.2350     5.7800     4.7910 c3         1 PCJ      -0.021400
     43 C45         -2.2110     4.2770     4.5070 c3         1 PCJ      -0.067400
     44 C46         -2.6220     4.0280     3.0790 c          1 PCJ       0.692100
     45 O47         -2.9040     4.9580     2.3610 o          1 PCJ      -0.573000
     46 C51         17.1290     4.7630    13.4990 c3         1 PCJ       0.005900
     47 C52         16.6190     4.7630    12.0570 c3         1 PCJ      -0.028400
     48 C53         15.2160     4.1530    12.0110 c3         1 PCJ      -0.030400
     49 C54         14.7060     4.1530    10.5690 c3         1 PCJ      -0.029400
     50 C55         13.3040     3.5430    10.5230 c3         1 PCJ      -0.029400
     51 C56         12.7930     3.5430     9.0810 c3         1 PCJ      -0.029400
     52 C57         11.3920     2.9330     9.0350 c3         1 PCJ      -0.029400
     53 C58         10.8810     2.9330     7.5940 c3         1 PCJ      -0.029400
     54 C59          9.4790     2.3230     7.5490 c3         1 PCJ      -0.029400
     55 C60          8.9690     2.3230     6.1060 c3         1 PCJ      -0.029400
     56 C61          7.5660     1.7130     6.0610 c3         1 PCJ      -0.029400
     57 C62          7.0570     1.7130     4.6180 c3         1 PCJ      -0.027400
     58 C63          5.6540     1.1030     4.5730 c3         1 PCJ      -0.032400
     59 C64          5.1450     1.1030     3.1300 c3         1 PCJ      -0.015400
     60 C65          3.7420     0.4930     3.0850 c3         1 PCJ      -0.096400
     61 C66          3.2400     0.4940     1.6640 c          1 PCJ       0.576100
     62 O67          3.9350     0.9380     0.7750 o          1 PCJ      -0.656100
     63 H511        17.1660     3.7450    13.8690 hc         1 PCJ       0.000033
     64 H512        16.4600     5.3480    14.1190 hc         1 PCJ       0.000033
     65 H513        18.1210     5.1950    13.5310 hc         1 PCJ       0.000033
     66 H521        16.5820     5.7800    11.6870 hc         1 PCJ       0.011700
     67 H522        17.2870     4.1770    11.4380 hc         1 PCJ       0.011700
     68 H531        15.2530     3.1350    12.3810 hc         1 PCJ       0.014700
     69 H532        14.5480     4.7380    12.6310 hc         1 PCJ       0.014700
     70 H541        14.6700     5.1700    10.1990 hc         1 PCJ       0.014700
     71 H542        15.3750     3.5670     9.9500 hc         1 PCJ       0.014700
     72 H551        13.3410     2.5250    10.8930 hc         1 PCJ       0.014700
     73 H552        12.6360     4.1280    11.1430 hc         1 PCJ       0.014700
     74 H561        13.4620     2.9580     8.4610 hc         1 PCJ       0.014700
     75 H562        12.7560     4.5600     8.7110 hc         1 PCJ       0.014700
     76 H571        11.4290     1.9150     9.4050 hc         1 PCJ       0.014700
     77 H572        10.7230     3.5170     9.6560 hc         1 PCJ       0.014700
     78 H581        11.5500     2.3490     6.9740 hc         1 PCJ       0.014700
     79 H582        10.8440     3.9510     7.2250 hc         1 PCJ       0.014700
     80 H591         9.5160     1.3050     7.9180 hc         1 PCJ       0.014200
     81 H592         8.8100     2.9080     8.1680 hc         1 PCJ       0.014200
     82 H601         9.6380     1.7380     5.4860 hc         1 PCJ       0.015700
     83 H602         8.9320     3.3410     5.7360 hc         1 PCJ       0.015700
     84 H611         7.6030     0.6950     6.4300 hc         1 PCJ       0.013700
     85 H612         6.8980     2.2980     6.6800 hc         1 PCJ       0.013700
     86 H621         7.0200     2.7310     4.2480 hc         1 PCJ       0.017200
     87 H622         7.7260     1.1280     3.9980 hc         1 PCJ       0.017200
     88 H631         5.6910     0.0850     4.9420 hc         1 PCJ       0.011200
     89 H632         4.9850     1.6880     5.1920 hc         1 PCJ       0.011200
     90 H641         5.8130     0.5180     2.5100 hc         1 PCJ       0.030200
     91 H642         5.1080     2.1210     2.7600 hc         1 PCJ       0.030200
     92 H651         3.0740     1.0790     3.7050 hc         1 PCJ       0.028200
     93 H652         3.7790    -0.5240     3.4550 hc         1 PCJ       0.028200
     94 HN           1.4430    -0.3620     2.1160 hn         1 PCJ       0.185500
     95 HA           1.8910     0.8850    -0.5100 h1         1 PCJ       0.074700
     96 H1           3.1190    -1.2880    -0.6380 h1         1 PCJ       0.004200
     97 H2A          1.7610    -1.2090    -1.7680 h1         1 PCJ       0.004200
     98 HO           1.7770    -3.1810    -0.5720 ho         1 PCJ       0.397000
     99 HB1         -0.3610    -0.8370     0.5850 h1         1 PCJ       0.048200
    100 HB2         -0.3610    -0.0880    -1.0180 h1         1 PCJ       0.048200
    101 H11         -2.7080     1.2410    -0.3970 h1         1 PCJ       0.044700
    102 H12         -2.7090     0.4920     1.2060 h1         1 PCJ       0.044700
    103 H2          -2.7770     3.4800     0.6500 h1         1 PCJ       0.063700
    104 H31         -4.9080     1.6350     1.7860 h1         1 PCJ       0.021200
    105 H32         -4.8910     2.2420     0.1250 h1         1 PCJ       0.021200
    106 H251        -7.0420     5.1750     3.0570 hc         1 PCJ       0.038700
    107 H252        -7.0240     5.7820     1.3950 hc         1 PCJ       0.038700
    108 H241        -9.0780     4.4940     0.9040 hc         1 PCJ       0.029200
    109 H242        -9.0950     3.8870     2.5650 hc         1 PCJ       0.029200
    110 H231        -9.2730     6.8110     1.7470 hc         1 PCJ       0.014200
    111 H232        -9.2900     6.2040     3.4090 hc         1 PCJ       0.014200
    112 H221       -11.3270     5.5220     1.2570 hc         1 PCJ       0.016700
    113 H222       -11.3440     4.9160     2.9190 hc         1 PCJ       0.016700
    114 H211       -11.5220     7.8380     2.0990 hc         1 PCJ       0.014700
    115 H212       -11.5390     7.2320     3.7610 hc         1 PCJ       0.014700
    116 H201       -13.5760     6.5520     1.6090 hc         1 PCJ       0.015200
    117 H202       -13.5930     5.9450     3.2700 hc         1 PCJ       0.015200
    118 H191       -13.7730     8.8680     2.4530 hc         1 PCJ       0.014700
    119 H192       -13.7900     8.2610     4.1140 hc         1 PCJ       0.014700
    120 H181       -15.8430     6.9730     3.6220 hc         1 PCJ       0.014700
    121 H182       -15.8260     7.5800     1.9610 hc         1 PCJ       0.014700
    122 H171       -16.0390     9.2890     4.4670 hc         1 PCJ       0.014700
    123 H172       -16.0220     9.8970     2.8060 hc         1 PCJ       0.014700
    124 H161       -18.0750     8.6080     2.3140 hc         1 PCJ       0.014700
    125 H162       -18.0920     8.0020     3.9760 hc         1 PCJ       0.014700
    126 H151       -18.2710    10.9250     3.1560 hc         1 PCJ       0.014700
    127 H152       -18.2890    10.3190     4.8180 hc         1 PCJ       0.014700
    128 H141       -20.3420     9.0300     4.3270 hc         1 PCJ       0.014700
    129 H142       -20.3250     9.6380     2.6650 hc         1 PCJ       0.014700
    130 H131       -20.5380    11.3460     5.1720 hc         1 PCJ       0.014700
    131 H132       -20.5210    11.9540     3.5100 hc         1 PCJ       0.014700
    132 H121       -22.5960    10.6500     3.0280 hc         1 PCJ       0.012200
    133 H122       -22.5690    10.0660     4.6970 hc         1 PCJ       0.012200
    134 H111       -24.1190    11.9900     4.4180 hc         1 PCJ       0.000033
    135 H112       -22.7630    12.9840     3.8680 hc         1 PCJ       0.000033
    136 H113       -22.7940    12.3690     5.5270 hc         1 PCJ       0.000033
    137 H451        -1.2100     3.8950     4.6660 hc         1 PCJ       0.036700
    138 H452        -2.9000     3.7730     5.1750 hc         1 PCJ       0.036700
    139 H441        -3.2360     6.1620     4.6320 hc         1 PCJ       0.029700
    140 H442        -1.5460     6.2850     4.1240 hc         1 PCJ       0.029700
    141 H431        -0.8160     5.6500     6.4000 hc         1 PCJ       0.013700
    142 H432        -2.5070     5.5280     6.9080 hc         1 PCJ       0.013700
    143 H421        -1.1520     8.0400     5.8570 hc         1 PCJ       0.016700
    144 H422        -2.8420     7.9180     6.3650 hc         1 PCJ       0.016700
    145 H411        -2.1130     7.2840     8.6410 hc         1 PCJ       0.014200
    146 H412        -0.4230     7.4060     8.1330 hc         1 PCJ       0.014200
    147 H401        -2.4480     9.6740     8.0970 hc         1 PCJ       0.015200
    148 H402        -0.7580     9.7960     7.5900 hc         1 PCJ       0.015200
    149 H391        -1.7190     9.0400    10.3750 hc         1 PCJ       0.014700
    150 H392        -0.0290     9.1630     9.8670 hc         1 PCJ       0.014700
    151 H381        -2.0550    11.4290     9.8310 hc         1 PCJ       0.014700
    152 H382        -0.3650    11.5510     9.3240 hc         1 PCJ       0.014700
    153 H371         0.3650    10.9180    11.6010 hc         1 PCJ       0.014700
    154 H372        -1.3260    10.7960    12.1080 hc         1 PCJ       0.014700
    155 H361         0.0290    13.3070    11.0570 hc         1 PCJ       0.014700
    156 H362        -1.6610    13.1860    11.5650 hc         1 PCJ       0.014700
    157 H351         0.7590    12.6740    13.3330 hc         1 PCJ       0.014700
    158 H352        -0.9320    12.5510    13.8410 hc         1 PCJ       0.014700
    159 H341         0.4220    15.0630    12.7910 hc         1 PCJ       0.014700
    160 H342        -1.2680    14.9400    13.2990 hc         1 PCJ       0.014700
    161 H331        -0.5380    14.3070    15.5740 hc         1 PCJ       0.014700
    162 H332         1.1520    14.4300    15.0660 hc         1 PCJ       0.014700
    163 H321         0.7990    16.8420    14.5250 hc         1 PCJ       0.012200
    164 H322        -0.8850    16.6700    15.0390 hc         1 PCJ       0.012200
    165 H311         1.5460    16.1860    16.8010 hc         1 PCJ       0.000033
    166 H312         0.5270    17.6310    16.8420 hc         1 PCJ       0.000033
    167 H313        -0.1440    16.0620    17.3090 hc         1 PCJ       0.000033
@<TRIPOS>BOND
     1     1     2 1   
     2     1     6 1   
     3     1    99 1   
     4     1   100 1   
     5     2     7 1   
     6     3     4 1   
     7     3     6 1   
     8     3    96 1   
     9     3    97 1   
    10     4    98 1   
    11     5     6 1   
    12     5    61 1   
    13     5    94 1   
    14     6    95 1   
    15     7     8 1   
    16     7   101 1   
    17     7   102 1   
    18     8     9 1   
    19     8    10 1   
    20     8   103 1   
    21     9    44 1   
    22    10    11 1   
    23    10   104 1   
    24    10   105 1   
    25    11    27 1   
    26    12    13 1   
    27    12   134 1   
    28    12   135 1   
    29    12   136 1   
    30    13    14 1   
    31    13   132 1   
    32    13   133 1   
    33    14    15 1   
    34    14   130 1   
    35    14   131 1   
    36    15    16 1   
    37    15   128 1   
    38    15   129 1   
    39    16    17 1   
    40    16   126 1   
    41    16   127 1   
    42    17    18 1   
    43    17   124 1   
    44    17   125 1   
    45    18    19 1   
    46    18   122 1   
    47    18   123 1   
    48    19    20 1   
    49    19   120 1   
    50    19   121 1   
    51    20    21 1   
    52    20   118 1   
    53    20   119 1   
    54    21    22 1   
    55    21   116 1   
    56    21   117 1   
    57    22    23 1   
    58    22   114 1   
    59    22   115 1   
    60    23    24 1   
    61    23   112 1   
    62    23   113 1   
    63    24    25 1   
    64    24   110 1   
    65    24   111 1   
    66    25    26 1   
    67    25   108 1   
    68    25   109 1   
    69    26    27 1   
    70    26   106 1   
    71    26   107 1   
    72    27    28 2   
    73    29    30 1   
    74    29   165 1   
    75    29   166 1   
    76    29   167 1   
    77    30    31 1   
    78    30   163 1   
    79    30   164 1   
    80    31    32 1   
    81    31   161 1   
    82    31   162 1   
    83    32    33 1   
    84    32   159 1   
    85    32   160 1   
    86    33    34 1   
    87    33   157 1   
    88    33   158 1   
    89    34    35 1   
    90    34   155 1   
    91    34   156 1   
    92    35    36 1   
    93    35   153 1   
    94    35   154 1   
    95    36    37 1   
    96    36   151 1   
    97    36   152 1   
    98    37    38 1   
    99    37   149 1   
   100    37   150 1   
   101    38    39 1   
   102    38   147 1   
   103    38   148 1   
   104    39    40 1   
   105    39   145 1   
   106    39   146 1   
   107    40    41 1   
   108    40   143 1   
   109    40   144 1   
   110    41    42 1   
   111    41   141 1   
   112    41   142 1   
   113    42    43 1   
   114    42   139 1   
   115    42   140 1   
   116    43    44 1   
   117    43   137 1   
   118    43   138 1   
   119    44    45 2   
   120    46    47 1   
   121    46    63 1   
   122    46    64 1   
   123    46    65 1   
   124    47    48 1   
   125    47    66 1   
   126    47    67 1   
   127    48    49 1   
   128    48    68 1   
   129    48    69 1   
   130    49    50 1   
   131    49    70 1   
   132    49    71 1   
   133    50    51 1   
   134    50    72 1   
   135    50    73 1   
   136    51    52 1   
   137    51    74 1   
   138    51    75 1   
   139    52    53 1   
   140    52    76 1   
   141    52    77 1   
   142    53    54 1   
   143    53    78 1   
   144    53    79 1   
   145    54    55 1   
   146    54    80 1   
   147    54    81 1   
   148    55    56 1   
   149    55    82 1   
   150    55    83 1   
   151    56    57 1   
   152    56    84 1   
   153    56    85 1   
   154    57    58 1   
   155    57    86 1   
   156    57    87 1   
   157    58    59 1   
   158    58    88 1   
   159    58    89 1   
   160    59    60 1   
   161    59    90 1   
   162    59    91 1   
   163    60    61 1   
   164    60    92 1   
   165    60    93 1   
   166    61    62 2   
@<TRIPOS>SUBSTRUCTURE
     1 PCJ         1 TEMP              0 ****  ****    0 ROOT
