@<TRIPOS>MOLECULE
PCM
   85    87     1     0     0
SMALL
bcc


@<TRIPOS>ATOM
      1 C1           0.0000     0.0000     0.0000 ca         1 PCM      -0.090000
      2 C2           1.3820     0.0000     0.0000 ca         1 PCM      -0.106500
      3 C3           2.0730     0.0000     1.1970 ca         1 PCM      -0.073500
      4 C4           1.3830    -0.0000     2.3930 ca         1 PCM      -0.120300
      5 C5           0.0000    -0.0050     2.3940 ca         1 PCM      -0.073500
      6 C6          -0.6910     0.0000     1.1970 ca         1 PCM      -0.106500
      7 C7           2.1350    -0.0000     3.6990 c3         1 PCM       0.310700
      8 O8           2.3780     1.3680     4.1190 os         1 PCM      -0.425900
      9 C9           3.0400     1.6130     5.2650 c          1 PCM       0.687100
     10 O10          3.4340     0.6890     5.9480 o          1 PCM      -0.671000
     11 C11          4.0620     3.1510     6.8550 c3         1 PCM      -0.063300
     12 C12          5.4180     3.7300     6.4470 c3         1 PCM      -0.039400
     13 C13          6.2000     2.6860     5.6470 c3         1 PCM      -0.054700
     14 C14          7.4960     3.3090     5.1240 c3         1 PCM      -0.002600
     15 C15          6.5340     1.4980     6.5500 c3         1 PCM      -0.002600
     16 C16          3.3360     4.1400     7.7290 c          1 PCM       0.573100
     17 O17          2.2600     4.5770     7.3850 o          1 PCM      -0.637100
     18 N18          3.8840     4.5380     8.8950 ns         1 PCM      -0.175900
     19 C19          3.1790     5.4990     9.7450 c3         1 PCM      -0.100300
     20 N20          3.2650     2.8830     5.6550 ns         1 PCM      -0.135900
     21 C21          4.1800     6.3180    10.5740 c3         1 PCM       0.056000
     22 C22          2.3300     4.7720    10.7740 c          1 PCM       0.597100
     23 O23          1.7520     3.7190    10.6510 o          1 PCM      -0.483100
     24 C24          8.0590    10.0940    20.9710 ca         1 PCM      -0.089000
     25 C25          6.6790    10.0960    21.0560 ca         1 PCM      -0.106500
     26 C26          5.9400     9.1960    20.3120 ca         1 PCM      -0.073000
     27 C27          6.5790     8.2930    19.4830 ca         1 PCM      -0.121300
     28 C28          7.9600     8.2880    19.4020 ca         1 PCM      -0.073000
     29 C29          8.6990     9.1920    20.1420 ca         1 PCM      -0.106500
     30 C30          5.7740     7.3120    18.6720 c3         1 PCM       0.310700
     31 O31          5.4520     7.8970    17.3830 os         1 PCM      -0.424900
     32 C32          4.7340     7.1970    16.4860 c          1 PCM       0.687100
     33 O33          4.3540     6.0740    16.7550 o          1 PCM      -0.673000
     34 C34          3.5970     7.0040    14.3390 c3         1 PCM      -0.061300
     35 C35          2.2240     7.6740    14.2460 c3         1 PCM      -0.060400
     36 C36          1.5410     7.6290    15.6150 c3         1 PCM      -0.053700
     37 C37          0.2380     8.4290    15.5610 c3         1 PCM      -0.002100
     38 C38          1.2330     6.1780    15.9820 c3         1 PCM      -0.002100
     39 O40          5.3140     7.5740    12.8240 o          1 PCM      -0.636100
     40 N41          3.6560     6.3900    11.9440 n          1 PCM      -0.149800
     41 C42          2.3770     5.6730    11.9950 c3         1 PCM      -0.078000
     42 N43          4.4350     7.7400    15.2890 ns         1 PCM      -0.134900
     43 H1          -0.5420     0.0020    -0.9380 ha         1 PCM       0.102000
     44 H2           1.9240     0.0000    -0.9380 ha         1 PCM       0.103500
     45 H3           3.1560     0.0020     1.1960 ha         1 PCM       0.106500
     46 H5          -0.5410    -0.0050     3.3320 ha         1 PCM       0.106500
     47 H6          -1.7740    -0.0020     1.1970 ha         1 PCM       0.103500
     48 H71          1.5490    -0.5110     4.4540 h1         1 PCM       0.012200
     49 H72          3.0820    -0.5120     3.5710 h1         1 PCM       0.012200
     50 H11          4.2130     2.2280     7.4010 h1         1 PCM       0.096700
     51 H121         5.2650     4.6120     5.8360 hc         1 PCM       0.022700
     52 H122         5.9780     3.9990     7.3340 hc         1 PCM       0.022700
     53 H13          5.6000     2.3470     4.8120 hc         1 PCM       0.033700
     54 H141         8.0800     2.5520     4.6150 hc         1 PCM       0.008200
     55 H142         7.2590     4.1090     4.4330 hc         1 PCM       0.008200
     56 H143         8.0670     3.7060     5.9550 hc         1 PCM       0.008200
     57 H151         6.9570     0.6990     5.9540 hc         1 PCM       0.008200
     58 H152         7.2510     1.8060     7.3020 hc         1 PCM       0.008200
     59 H153         5.6310     1.1470     7.0350 hc         1 PCM       0.008200
     60 HN8          4.7570     4.1530     9.1950 hn         1 PCM       0.185500
     61 H19          2.5600     6.1570     9.1470 h1         1 PCM       0.089700
     62 HN2          2.8670     3.6420     5.1380 hn         1 PCM       0.190500
     63 H211         4.2690     7.3160    10.1620 h1         1 PCM       0.033700
     64 H212         5.1460     5.8270    10.5750 h1         1 PCM       0.033700
     65 H25          6.1770    10.8030    21.7060 ha         1 PCM       0.104000
     66 H26          4.8590     9.1990    20.3770 ha         1 PCM       0.106000
     67 H28          8.4610     7.5810    18.7520 ha         1 PCM       0.106000
     68 H29          9.7810     9.1900    20.0770 ha         1 PCM       0.104000
     69 H301         4.8580     7.0740    19.1990 h1         1 PCM       0.012200
     70 H302         6.3500     6.4070    18.5230 h1         1 PCM       0.012200
     71 H34          3.4780     5.9820    14.6780 h1         1 PCM       0.095700
     72 H351         2.3460     8.7050    13.9370 hc         1 PCM       0.030200
     73 H352         1.6150     7.1490    13.5210 hc         1 PCM       0.030200
     74 H36          2.1980     8.0590    16.3610 hc         1 PCM       0.033700
     75 H371        -0.4070     8.0180    14.7930 hc         1 PCM       0.008533
     76 H372         0.4590     9.4640    15.3300 hc         1 PCM       0.008533
     77 H373        -0.2610     8.3710    16.5210 hc         1 PCM       0.008533
     78 H381         0.9550     6.1210    17.0280 hc         1 PCM       0.008533
     79 H382         0.4150     5.8160    15.3710 hc         1 PCM       0.008533
     80 H383         2.1110     5.5670    15.8080 hc         1 PCM       0.008533
     81 H421         2.3240     5.0740    12.8960 h1         1 PCM       0.052200
     82 H422         1.5560     6.3790    11.9640 h1         1 PCM       0.052200
     83 HN4          4.8040     8.6360    15.0410 hn         1 PCM       0.191500
     84 C39          4.2510     7.0100    12.9820 c          1 PCM       0.597100
     85 H24          8.6380    10.8010    21.5530 ha         1 PCM       0.102000
@<TRIPOS>BOND
     1     1     2 ar  
     2     1     6 ar  
     3     1    43 1   
     4     2     3 ar  
     5     2    44 1   
     6     3     4 ar  
     7     3    45 1   
     8     4     5 ar  
     9     4     7 1   
    10     5     6 ar  
    11     5    46 1   
    12     6    47 1   
    13     7     8 1   
    14     7    48 1   
    15     7    49 1   
    16     8     9 1   
    17     9    10 2   
    18     9    20 1   
    19    11    12 1   
    20    11    16 1   
    21    11    20 1   
    22    11    50 1   
    23    12    13 1   
    24    12    51 1   
    25    12    52 1   
    26    13    14 1   
    27    13    15 1   
    28    13    53 1   
    29    14    54 1   
    30    14    55 1   
    31    14    56 1   
    32    15    57 1   
    33    15    58 1   
    34    15    59 1   
    35    16    17 2   
    36    16    18 1   
    37    18    19 1   
    38    18    60 1   
    39    19    21 1   
    40    19    22 1   
    41    19    61 1   
    42    20    62 1   
    43    21    40 1   
    44    21    63 1   
    45    21    64 1   
    46    22    23 2   
    47    22    41 1   
    48    24    25 ar  
    49    24    29 ar  
    50    24    85 1   
    51    25    26 ar  
    52    25    65 1   
    53    26    27 ar  
    54    26    66 1   
    55    27    28 ar  
    56    27    30 1   
    57    28    29 ar  
    58    28    67 1   
    59    29    68 1   
    60    30    31 1   
    61    30    69 1   
    62    30    70 1   
    63    31    32 1   
    64    32    33 2   
    65    32    42 1   
    66    34    35 1   
    67    34    42 1   
    68    34    71 1   
    69    34    84 1   
    70    35    36 1   
    71    35    72 1   
    72    35    73 1   
    73    36    37 1   
    74    36    38 1   
    75    36    74 1   
    76    37    75 1   
    77    37    76 1   
    78    37    77 1   
    79    38    78 1   
    80    38    79 1   
    81    38    80 1   
    82    39    84 2   
    83    40    41 1   
    84    40    84 1   
    85    41    81 1   
    86    41    82 1   
    87    42    83 1   
@<TRIPOS>SUBSTRUCTURE
     1 PCM         1 TEMP              0 ****  ****    0 ROOT
