@<TRIPOS>MOLECULE
PCN
   44    45     1     0     0
SMALL
bcc


@<TRIPOS>ATOM
      1 O1           0.0000     0.0000     0.0000 o          1 PCN      -0.574100
      2 C1           1.2080     0.0000     0.0000 c          1 PCN       0.676900
      3 C2           1.9600     0.0000     1.3050 c3         1 PCN      -0.086300
      4 C3           2.8400    -1.2490     1.3870 c3         1 PCN       0.263600
      5 S4           1.8510    -2.7890     1.1270 ss         1 PCN      -0.503200
      6 C5           3.1910    -3.7980     0.3610 c3         1 PCN       0.137100
      7 C51          2.6830    -4.5300    -0.8830 c3         1 PCN      -0.000100
      8 C52          3.7780    -4.7850     1.3720 c3         1 PCN      -0.000100
      9 C6           4.2240    -2.7150    -0.0190 c3         1 PCN      -0.007500
     10 C61          5.4750    -2.9420     0.7910 c          1 PCN       0.960600
     11 O62          5.7370    -2.2130     1.7170 o          1 PCN      -0.883800
     12 O63          6.2980    -3.9570     0.4830 o          1 PCN      -0.883800
     13 N7           3.7600    -1.3450     0.2150 n7         1 PCN      -0.601200
     14 N8           1.0080     0.0000     2.4180 ns         1 PCN      -0.170900
     15 C9           0.4930     1.1630     2.8640 c          1 PCN       0.482800
     16 O91          0.7390     2.2010     2.2800 o          1 PCN      -0.661100
     17 C10         -0.3740     1.1780     4.0660 ce         1 PCN       0.276300
     18 N11         -0.9790     2.2760     4.4190 n2         1 PCN      -0.382200
     19 O12         -0.7070     3.4860     3.7360 os         1 PCN      -0.119300
     20 C13         -1.5130     4.4960     4.3460 c3         1 PCN       0.242700
     21 C14         -0.5520    -0.0540     4.8630 cc         1 PCN       0.323000
     22 C15         -1.4970    -0.1090     5.8540 cd         1 PCN      -0.070400
     23 S16         -1.2620    -1.7790     6.4470 ss         1 PCN      -0.452300
     24 C17          0.0550    -2.2330     5.3290 cd         1 PCN       0.616300
     25 N18          0.2000    -1.1280     4.6230 nc         1 PCN      -0.665000
     26 N19          0.7410    -3.4320     5.2260 nv         1 PCN      -0.443500
     27 HC1          1.7490     0.0660    -0.9360 h4         1 PCN      -0.024800
     28 HC2          2.5830     0.8840     1.3620 h1         1 PCN       0.069700
     29 HC3          3.3900    -1.2920     2.3190 h2         1 PCN       0.073700
     30 H511         1.8200    -5.1300    -0.6220 hc         1 PCN       0.018700
     31 H512         2.4050    -3.8060    -1.6390 hc         1 PCN       0.018700
     32 H513         3.4660    -5.1730    -1.2680 hc         1 PCN       0.018700
     33 H521         4.5890    -5.3350     0.9100 hc         1 PCN       0.018700
     34 H522         3.0080    -5.4770     1.6910 hc         1 PCN       0.018700
     35 H523         4.1540    -4.2420     2.2310 hc         1 PCN       0.018700
     36 HC6          4.4630    -2.8210    -1.0700 h1         1 PCN       0.055700
     37 HN7          4.5480    -0.7450     0.3580 hn         1 PCN       0.289800
     38 HN8          0.7170    -0.8650     2.8280 hn         1 PCN       0.233500
     39 H131        -2.5560     4.2130     4.2820 h1         1 PCN      -0.009300
     40 H132        -1.3620     5.4380     3.8330 h1         1 PCN      -0.009300
     41 H133        -1.2310     4.6030     5.3870 h1         1 PCN      -0.009300
     42 H15         -2.1940     0.6510     6.1870 h4         1 PCN       0.181000
     43 H191         1.6870    -3.4410     4.9010 hn         1 PCN       0.281800
     44 H192         0.2820    -4.2920     5.4560 hn         1 PCN       0.281800
@<TRIPOS>BOND
     1     1     2 2   
     2     2     3 1   
     3     2    27 1   
     4     3     4 1   
     5     3    14 1   
     6     3    28 1   
     7     4     5 1   
     8     4    13 1   
     9     4    29 1   
    10     5     6 1   
    11     6     7 1   
    12     6     8 1   
    13     6     9 1   
    14     7    30 1   
    15     7    31 1   
    16     7    32 1   
    17     8    33 1   
    18     8    34 1   
    19     8    35 1   
    20     9    10 1   
    21     9    13 1   
    22     9    36 1   
    23    10    11 1   
    24    10    12 1   
    25    13    37 1   
    26    14    15 1   
    27    14    38 1   
    28    15    16 2   
    29    15    17 1   
    30    17    18 2   
    31    17    21 1   
    32    18    19 1   
    33    19    20 1   
    34    20    39 1   
    35    20    40 1   
    36    20    41 1   
    37    21    22 2   
    38    21    25 1   
    39    22    23 1   
    40    22    42 1   
    41    23    24 1   
    42    24    25 2   
    43    24    26 1   
    44    26    43 1   
    45    26    44 1   
@<TRIPOS>SUBSTRUCTURE
     1 PCN         1 TEMP              0 ****  ****    0 ROOT
