@<TRIPOS>MOLECULE
PCO
   38    37     1     0     0
SMALL
bcc


@<TRIPOS>ATOM
      1 C23          0.0000     0.0000     0.0000 c2         1 PCO      -0.085400
      2 N19          1.4010     0.0000     0.0000 ns         1 PCO      -0.048100
      3 C17          2.0740     0.0000     1.1670 c          1 PCO       0.564100
      4 C16          3.5820     0.0000     1.1670 c3         1 PCO      -0.112400
      5 C15          4.0920     0.0010     2.6090 c3         1 PCO       0.064000
      6 N14          5.5560     0.0010     2.6090 ns         1 PCO      -0.228900
      7 C12          6.2300     0.0000     3.7750 c          1 PCO       0.540100
      8 C10          7.7350    -0.0830     3.7770 c3         1 PCO       0.133100
      9 C7           8.3190     1.2320     3.2610 c3         1 PCO      -0.077000
     10 C6           7.7560     2.3960     4.0770 c3         1 PCO       0.221400
     11 O5           8.3010     3.6250     3.5940 oh         1 PCO      -0.599800
     12 C8           7.9450     1.4140     1.7880 c3         1 PCO       0.005400
     13 C9           9.8430     1.2030     3.3990 c3         1 PCO       0.005400
     14 O11          8.1980    -0.3200     5.1070 oh         1 PCO      -0.552800
     15 O13          5.6260     0.0670     4.8250 o          1 PCO      -0.618100
     16 O18          1.4680     0.0000     2.2180 o          1 PCO      -0.619100
     17 C24         -0.6630    -0.0000    -1.1480 c2         1 PCO      -0.094400
     18 S25          0.2170    -0.0000    -2.6730 sh         1 PCO      -0.380400
     19 HC23        -0.5410     0.0000     0.9380 h4         1 PCO       0.154000
     20 HN19         1.9010    -0.0160    -0.8670 hn         1 PCO       0.190500
     21 H161         3.9430     0.8850     0.6560 hc         1 PCO       0.032200
     22 H162         3.9430    -0.8850     0.6560 hc         1 PCO       0.032200
     23 H151         3.7310    -0.8840     3.1200 h1         1 PCO       0.042200
     24 H152         3.7310     0.8850     3.1190 h1         1 PCO       0.042200
     25 HN14         6.0550    -0.0550     1.7430 hn         1 PCO       0.184500
     26 HC10         8.0520    -0.8960     3.1340 h1         1 PCO       0.008700
     27 HC61         6.6770     2.4170     3.9780 h1         1 PCO       0.005700
     28 HC62         8.0210     2.2690     5.1190 h1         1 PCO       0.005700
     29 HO5          7.9990     4.3370     4.1330 ho         1 PCO       0.392000
     30 HC81         6.9790     1.8990     1.7180 hc         1 PCO       0.011033
     31 HC82         8.6920     2.0260     1.2980 hc         1 PCO       0.011033
     32 HC83         7.8980     0.4450     1.3050 hc         1 PCO       0.011033
     33 HC91        10.2680     2.0580     2.8870 hc         1 PCO       0.011033
     34 HC92        10.1110     1.2400     4.4470 hc         1 PCO       0.011033
     35 HC93        10.2280     0.2910     2.9590 hc         1 PCO       0.011033
     36 HO11         8.2590    -1.2490     5.2580 ho         1 PCO       0.392000
     37 HC24        -1.7470    -0.0000    -1.1480 h4         1 PCO       0.128000
     38 HS25        -0.6450    -0.0300    -3.6820 hs         1 PCO       0.204800
@<TRIPOS>BOND
     1     1     2 1   
     2     1    17 2   
     3     1    19 1   
     4     2     3 1   
     5     2    20 1   
     6     3     4 1   
     7     3    16 2   
     8     4     5 1   
     9     4    21 1   
    10     4    22 1   
    11     5     6 1   
    12     5    23 1   
    13     5    24 1   
    14     6     7 1   
    15     6    25 1   
    16     7     8 1   
    17     7    15 2   
    18     8     9 1   
    19     8    14 1   
    20     8    26 1   
    21     9    10 1   
    22     9    12 1   
    23     9    13 1   
    24    10    11 1   
    25    10    27 1   
    26    10    28 1   
    27    11    29 1   
    28    12    30 1   
    29    12    31 1   
    30    12    32 1   
    31    13    33 1   
    32    13    34 1   
    33    13    35 1   
    34    14    36 1   
    35    17    18 1   
    36    17    37 1   
    37    18    38 1   
@<TRIPOS>SUBSTRUCTURE
     1 PCO         1 TEMP              0 ****  ****    0 ROOT
