@<TRIPOS>MOLECULE
molecule
   38    37     1     0     0
SMALL
bcc


@<TRIPOS>ATOM
      1 C23          0.0000     0.0000     0.0000 c2         1 PCO      -0.025400
      2 N19          1.4010     0.0000     0.0000 ns         1 PCO      -0.450100
      3 C17          2.0740     0.0000     1.1670 c          1 PCO       0.629100
      4 C16          3.5820     0.0000     1.1670 c3         1 PCO      -0.193400
      5 C15          4.0920     0.0010     2.6090 c3         1 PCO       0.124000
      6 N14          5.5560     0.0010     2.6090 ns         1 PCO      -0.599900
      7 C12          6.2300     0.0000     3.7750 c          1 PCO       0.627100
      8 C10          7.7350    -0.0830     3.7770 c3         1 PCO       0.087100
      9 C7           8.3190     1.2320     3.2610 c3         1 PCO      -0.056000
     10 C6           7.7560     2.3960     4.0770 c3         1 PCO       0.148400
     11 O5           8.3010     3.6250     3.5940 oh         1 PCO      -0.618800
     12 C8           7.9450     1.4140     1.7880 c3         1 PCO      -0.080100
     13 C9           9.8430     1.2030     3.3990 c3         1 PCO      -0.080100
     14 O11          8.1980    -0.3200     5.1070 oh         1 PCO      -0.569800
     15 O13          5.6260     0.0670     4.8250 o          1 PCO      -0.577100
     16 O18          1.4680     0.0000     2.2180 o          1 PCO      -0.469100
     17 C24         -0.6630    -0.0000    -1.1480 c2         1 PCO      -0.356400
     18 S25          0.2170    -0.0000    -2.6730 sh         1 PCO      -0.344400
     19 HC23         0.6120     0.8750    -0.1860 h4         1 PCO       0.364000
     20 HN19         1.9010    -0.0470    -0.8660 hn         1 PCO       0.256500
     21 H161         3.9430    -0.8850     0.6560 hc         1 PCO       0.069700
     22 H162         3.9430     0.8850     0.6560 hc         1 PCO       0.069700
     23 H151         3.7310     0.8850     3.1190 h1         1 PCO       0.072700
     24 H152         3.7310    -0.8840     3.1200 h1         1 PCO       0.072700
     25 HN14         6.0550    -0.0550     1.7430 hn         1 PCO       0.313500
     26 HC10         8.0520    -0.8960     3.1340 h1         1 PCO       0.045700
     27 HC61         8.0210     2.2690     5.1190 h1         1 PCO       0.039700
     28 HC62         6.6770     2.4170     3.9780 h1         1 PCO       0.039700
     29 HO5          7.9990     4.3370     4.1330 ho         1 PCO       0.406000
     30 HC81         8.6920     2.0260     1.2980 hc         1 PCO       0.041533
     31 HC82         6.9790     1.9000     1.7180 hc         1 PCO       0.041533
     32 HC83         7.8980     0.4450     1.3050 hc         1 PCO       0.041533
     33 HC91        10.2280     0.2900     2.9610 hc         1 PCO       0.041533
     34 HC92        10.1110     1.2420     4.4470 hc         1 PCO       0.041533
     35 HC93        10.2680     2.0570     2.8850 hc         1 PCO       0.041533
     36 HO11         8.2600    -1.2490     5.2580 ho         1 PCO       0.409000
     37 HC24        -0.1980    -0.8750    -1.5860 h4         1 PCO       0.179000
     38 HS25        -0.6130     0.3060    -3.6630 hs         1 PCO       0.216800
@<TRIPOS>BOND
     1     1     2 1
     2     1    17 2
     3     1    19 1
     4     2     3 1
     5     2    20 1
     6     3     4 1
     7     3    16 2
     8     4     5 1
     9     4    21 1
    10     4    22 1
    11     5     6 1
    12     5    23 1
    13     5    24 1
    14     6     7 1
    15     6    25 1
    16     7     8 1
    17     7    15 2
    18     8     9 1
    19     8    14 1
    20     8    26 1
    21     9    10 1
    22     9    12 1
    23     9    13 1
    24    10    11 1
    25    10    27 1
    26    10    28 1
    27    11    29 1
    28    12    30 1
    29    12    31 1
    30    12    32 1
    31    13    33 1
    32    13    34 1
    33    13    35 1
    34    14    36 1
    35    17    18 1
    36    17    37 1
    37    18    38 1
@<TRIPOS>SUBSTRUCTURE
     1 PCO         1 TEMP              0 ****  ****    0 ROOT
