@<TRIPOS>MOLECULE
molecule
   32    32     1     0     0
SMALL
bcc


@<TRIPOS>ATOM
      1 C1           0.0000     0.0000     0.0000 c3         1 PCP       0.183100
      2 C2           1.5420     0.0000     0.0000 c3         1 PCP       0.117100
      3 C3           1.9810     0.0000     1.4740 c3         1 PCP       0.119100
      4 C4           0.6910     0.0010     2.3200 c3         1 PCP      -0.075700
      5 C5          -0.3800     0.6010     1.3740 c3         1 PCP      -0.070400
      6 CP           0.8590     0.8760     3.5620 c3         1 PCP       0.162400
      7 O1          -0.5000    -1.3320    -0.1220 os         1 PCP      -0.517200
      8 O2           2.0330    -1.1690    -0.6570 oh         1 PCP      -0.539800
      9 O3           2.7500    -1.1700     1.7560 oh         1 PCP      -0.583800
     10 OP          -0.3750     0.9280     4.2790 os         1 PCP      -0.534200
     11 P           -0.1260     1.8600     5.5690 p5         1 PCP       1.201900
     12 O1P          0.2830     3.2120     5.1280 o          1 PCP      -0.940167
     13 O2P         -1.4840     1.9630     6.4270 o          1 PCP      -0.940167
     14 O3P          1.0370     1.2180     6.4780 o          1 PCP      -0.940167
     15 PA          -1.4150    -1.3680    -1.4460 p5         1 PCP       1.268800
     16 O1A         -0.5950    -1.0050    -2.6220 o          1 PCP      -0.818000
     17 O2A         -2.6240    -0.3170    -1.2900 o          1 PCP      -0.818000
     18 O3A         -2.0140    -2.8480    -1.6470 os         1 PCP      -0.658800
     19 PB          -2.9140    -2.8100    -2.9800 p5         1 PCP       1.201900
     20 O1B         -2.0710    -2.4250    -4.1340 o          1 PCP      -0.933167
     21 O2B         -3.5470    -4.2670    -3.2420 o          1 PCP      -0.933167
     22 O3B         -4.0980    -1.7360    -2.7990 o          1 PCP      -0.933167
     23 H1          -0.3750     0.6260    -0.8000 h1         1 PCP       0.075700
     24 H2           1.9110     0.8910    -0.4940 h1         1 PCP      -0.011300
     25 H3           2.5600     0.8900     1.6860 h1         1 PCP      -0.005300
     26 H4           0.4220    -1.0120     2.5970 hc         1 PCP       0.082700
     27 H51         -1.3720     0.2810     1.6690 hc         1 PCP       0.058700
     28 H52         -0.3070     1.6810     1.3520 hc         1 PCP       0.058700
     29 HP1          1.6290     0.4560     4.1980 h1         1 PCP       0.015700
     30 HP2          1.1450     1.8770     3.2620 h1         1 PCP       0.015700
     31 HO2          2.6820    -0.9220    -1.2950 ho         1 PCP       0.346000
     32 HO3          3.6310    -0.9200     1.9820 ho         1 PCP       0.342000
@<TRIPOS>BOND
     1     1     2 1
     2     1     5 1
     3     1     7 1
     4     1    23 1
     5     2     3 1
     6     2     8 1
     7     2    24 1
     8     3     4 1
     9     3     9 1
    10     3    25 1
    11     4     5 1
    12     4     6 1
    13     4    26 1
    14     5    27 1
    15     5    28 1
    16     6    10 1
    17     6    29 1
    18     6    30 1
    19     7    15 1
    20     8    31 1
    21     9    32 1
    22    10    11 1
    23    11    12 1
    24    11    13 1
    25    11    14 1
    26    15    16 1
    27    15    17 1
    28    15    18 1
    29    18    19 1
    30    19    20 1
    31    19    21 1
    32    19    22 1
@<TRIPOS>SUBSTRUCTURE
     1 PCP         1 TEMP              0 ****  ****    0 ROOT
