@<TRIPOS>MOLECULE
PCP
   32    32     1     0     0
SMALL
bcc


@<TRIPOS>ATOM
      1 C1         -0.0150    0.0810    0.1490 c3        1 PCP      0.188100
      2 C2          1.4670   -0.1790    0.5610 c3        1 PCP      0.093100
      3 C3          1.4480   -0.5900    2.0510 c3        1 PCP      0.146100
      4 C4          0.2060    0.0770    2.6630 c3        1 PCP     -0.113700
      5 C5         -0.7460    0.3320    1.4890 c3        1 PCP     -0.091400
      6 CP          0.5530    1.3630    3.4450 c3        1 PCP      0.224400
      7 O1         -0.5610   -0.9820   -0.5530 os        1 PCP     -0.586200
      8 O2          2.1280   -1.1670   -0.1950 oh        1 PCP     -0.670800
      9 O3          1.3890   -2.0060    2.1820 oh        1 PCP     -0.642800
     10 OP          1.2440    1.0960    4.6100 os        1 PCP     -0.585200
     11 P           1.0640    2.2200    5.9010 p5        1 PCP      1.329900
     12 O1P        -0.4200    2.4850    5.9900 o         1 PCP     -0.953500
     13 O2P         1.6400    1.4720    7.0820 o         1 PCP     -0.953500
     14 O3P         1.8840    3.4170    5.4750 o         1 PCP     -0.953500
     15 PA         -0.7770   -0.7410   -2.2370 p5        1 PCP      1.582800
     16 O1A         0.6470   -0.9140   -2.6630 o         1 PCP     -0.923000
     17 O2A        -1.3500    0.6310   -2.3280 o         1 PCP     -0.923000
     18 O3A        -1.7310   -1.8730   -2.7480 os        1 PCP     -0.808800
     19 PB         -2.7490   -3.0240   -3.6470 p5        1 PCP      1.469900
     20 O1B        -2.6360   -2.5630   -5.0780 o         1 PCP     -0.968833
     21 O2B        -2.1400   -4.3790   -3.4010 o         1 PCP     -0.968833
     22 O3B        -4.1330   -2.8700   -3.0710 o         1 PCP     -0.968833
     23 H1         -0.0590    1.0100   -0.4900 h1        1 PCP      0.042700
     24 H2          2.0480    0.7800    0.4570 h1        1 PCP      0.002700
     25 H3          2.3780   -0.2860    2.5990 h1        1 PCP      0.061700
     26 H4         -0.2610   -0.6400    3.3880 hc        1 PCP      0.044700
     27 H51        -1.1260    1.3830    1.5130 hc        1 PCP      0.027700
     28 H52        -1.6270   -0.3540    1.5520 hc        1 PCP      0.027700
     29 HP1         1.1740    2.0120    2.7560 h1        1 PCP     -0.011800
     30 HP2        -0.4020    1.9120    3.6880 h1        1 PCP     -0.011800
     31 HO2         1.5810   -1.3250   -1.0010 ho        1 PCP      0.478000
     32 HO3         0.8450   -2.3170    1.4450 ho        1 PCP      0.416000
@<TRIPOS>BOND
     1    1    2 1   
     2    1    5 1   
     3    1    7 1   
     4    1   23 1   
     5    2    3 1   
     6    2    8 1   
     7    2   24 1   
     8    3    4 1   
     9    3    9 1   
    10    3   25 1   
    11    4    5 1   
    12    4    6 1   
    13    4   26 1   
    14    5   27 1   
    15    5   28 1   
    16    6   10 1   
    17    6   29 1   
    18    6   30 1   
    19    7   15 1   
    20    8   31 1   
    21    9   32 1   
    22   10   11 1   
    23   11   12 1   
    24   11   13 1   
    25   11   14 1   
    26   15   16 1   
    27   15   17 1   
    28   15   18 1   
    29   18   19 1   
    30   19   20 1   
    31   19   21 1   
    32   19   22 1   
@<TRIPOS>SUBSTRUCTURE
     1 PCP         1 TEMP              0 ****  ****    0 ROOT
