@<TRIPOS>MOLECULE
molecule
   24    25     1     0     0
SMALL
bcc


@<TRIPOS>ATOM
      1 Cl1          0.0000     0.0000     0.0000 cl         1 PCQ      -0.076650
      2 Cl2          3.6550    -0.0080    -3.9870 cl         1 PCQ      -0.076650
      3 O1           0.9560    -0.0020    -2.7920 oh         1 PCQ      -0.499100
      4 C1           4.0010     0.0000     0.0000 cp         1 PCQ      -0.032500
      5 C2           2.6720     0.0000     0.4160 ca         1 PCQ      -0.099500
      6 C3           1.6560    -0.0000    -0.5190 ca         1 PCQ       0.009150
      7 C4           1.9580    -0.0020    -1.8740 ca         1 PCQ       0.123100
      8 C5           3.2820    -0.0070    -2.2920 ca         1 PCQ       0.009150
      9 C6           4.3010    -0.0010    -1.3610 ca         1 PCQ      -0.099500
     10 Cl3          8.6740    -1.7270     1.4620 cl         1 PCQ      -0.076650
     11 Cl4          5.8600     1.7320     4.5270 cl         1 PCQ      -0.076650
     12 O1'          8.1390     0.0040     3.7930 oh         1 PCQ      -0.499100
     13 C1'          5.0940     0.0010     1.0010 cp         1 PCQ      -0.032500
     14 C2'          6.2350    -0.7690     0.7900 ca         1 PCQ      -0.099500
     15 C3'          7.2510    -0.7670     1.7250 ca         1 PCQ       0.009150
     16 C4'          7.1370     0.0020     2.8740 ca         1 PCQ       0.123100
     17 C5'          6.0000     0.7710     3.0870 ca         1 PCQ       0.009150
     18 C6'          4.9840     0.7770     2.1530 ca         1 PCQ      -0.099500
     19 HO1          0.7260     0.8860    -3.0070 ho         1 PCQ       0.430000
     20 H21          2.4350     0.0000     1.4730 ha         1 PCQ       0.156500
     21 H61          5.3340    -0.0010    -1.6880 ha         1 PCQ       0.156500
     22 HO1'         7.9870    -0.6790     4.4240 ho         1 PCQ       0.430000
     23 H2'1         6.3100    -1.3970    -0.0890 ha         1 PCQ       0.156500
     24 H6'1         4.1250     1.4220     2.2920 ha         1 PCQ       0.156500
@<TRIPOS>BOND
     1     1     6 1
     2     2     8 1
     3     3     7 1
     4     3    19 1
     5     4     5 ar
     6     4     9 ar
     7     4    13 1
     8     5     6 ar
     9     5    20 1
    10     6     7 ar
    11     7     8 ar
    12     8     9 ar
    13     9    21 1
    14    10    15 1
    15    11    17 1
    16    12    16 1
    17    12    22 1
    18    13    14 ar
    19    13    18 ar
    20    14    15 ar
    21    14    23 1
    22    15    16 ar
    23    16    17 ar
    24    17    18 ar
    25    18    24 1
@<TRIPOS>SUBSTRUCTURE
     1 PCQ         1 TEMP              0 ****  ****    0 ROOT
