@<TRIPOS>MOLECULE
PCQ
   24    25     1     0     0
SMALL
bcc


@<TRIPOS>ATOM
      1 CL1        -0.0140    0.0710    0.0680 cl        1 PCQ     -0.069400
      2 CL2         3.6620    0.1390   -3.9090 cl        1 PCQ     -0.069400
      3 O1          0.8510    0.1320   -2.7390 oh        1 PCQ     -0.473100
      4 C1          3.9630    0.0440    0.0570 cp        1 PCQ     -0.056000
      5 C2          2.6220    0.0450    0.4620 ca        1 PCQ     -0.078500
      6 C3          1.5920    0.0740   -0.4790 ca        1 PCQ     -0.037600
      7 C4          1.8990    0.1030   -1.8570 ca        1 PCQ      0.150100
      8 C5          3.2500    0.1020   -2.2570 ca        1 PCQ     -0.037600
      9 C6          4.2710    0.0730   -1.3080 ca        1 PCQ     -0.078500
     10 CL3         8.5260   -1.8250    1.5380 cl        1 PCQ     -0.069400
     11 CL4         5.7880    1.7450    4.5520 cl        1 PCQ     -0.069400
     12 O1'         8.0530   -0.0250    3.9470 oh        1 PCQ     -0.473100
     13 C1'         5.0320    0.0130    1.0530 cp        1 PCQ     -0.056000
     14 C2'         6.1550   -0.7970    0.8570 ca        1 PCQ     -0.078500
     15 C3'         7.1750   -0.8260    1.8080 ca        1 PCQ     -0.037600
     16 C4'         7.0880   -0.0420    2.9760 ca        1 PCQ      0.150100
     17 C5'         5.9530    0.7750    3.1700 ca        1 PCQ     -0.037600
     18 C6'         4.9390    0.7960    2.2120 ca        1 PCQ     -0.078500
     19 HO1         1.2100    0.1520   -3.6420 ho        1 PCQ      0.435000
     20 H21         2.3760    0.0150    1.5360 ha        1 PCQ      0.157000
     21 H61         5.3240    0.0800   -1.6330 ha        1 PCQ      0.157000
     22 HO1'        8.7660   -0.6300    3.6820 ho        1 PCQ      0.435000
     23 H2'1        6.2320   -1.4210   -0.0490 ha        1 PCQ      0.157000
     24 H6'1        4.0580    1.4410    2.3650 ha        1 PCQ      0.157000
@<TRIPOS>BOND
     1    1    6 1   
     2    2    8 1   
     3    3    7 1   
     4    3   19 1   
     5    4    5 ar  
     6    4    9 ar  
     7    4   13 1   
     8    5    6 ar  
     9    5   20 1   
    10    6    7 ar  
    11    7    8 ar  
    12    8    9 ar  
    13    9   21 1   
    14   10   15 1   
    15   11   17 1   
    16   12   16 1   
    17   12   22 1   
    18   13   14 ar  
    19   13   18 ar  
    20   14   15 ar  
    21   14   23 1   
    22   15   16 ar  
    23   16   17 ar  
    24   17   18 ar  
    25   18   24 1   
@<TRIPOS>SUBSTRUCTURE
     1 PCQ         1 TEMP              0 ****  ****    0 ROOT
