@<TRIPOS>MOLECULE
molecule
   16    16     1     0     0
SMALL
bcc


@<TRIPOS>ATOM
      1 CB           0.0000     0.0000     0.0000 c3         1 PCR      -0.046800
      2 CG           1.5060     0.0000     0.0000 ca         1 PCR      -0.091300
      3 CD1          2.1970     0.0000     1.1980 ca         1 PCR      -0.116000
      4 CE1          3.5770     0.0010     1.2000 ca         1 PCR      -0.148500
      5 CD2          2.1970    -0.0060    -1.1980 ca         1 PCR      -0.116000
      6 CE2          3.5770    -0.0010    -1.2000 ca         1 PCR      -0.148500
      7 CZ           4.2720    -0.0000     0.0000 ca         1 PCR       0.098100
      8 OH           5.6310     0.0000    -0.0000 oh         1 PCR      -0.523100
      9 HB1         -0.3610    -0.7350    -0.7090 hc         1 PCR       0.043700
     10 HB2         -0.3610    -0.2470     0.9910 hc         1 PCR       0.043700
     11 HB3         -0.3610     0.9820    -0.2820 hc         1 PCR       0.043700
     12 HD11         1.6550     0.0010     2.1360 ha         1 PCR       0.133000
     13 HE11         4.1170     0.0010     2.1390 ha         1 PCR       0.139000
     14 HD21         1.6550    -0.0070    -2.1360 ha         1 PCR       0.133000
     15 HE21         4.1170    -0.0040    -2.1390 ha         1 PCR       0.139000
     16 HO1          5.9450     0.8890     0.0130 ho         1 PCR       0.417000
@<TRIPOS>BOND
     1     1     2 1
     2     1     9 1
     3     1    10 1
     4     1    11 1
     5     2     3 ar
     6     2     5 ar
     7     3     4 ar
     8     3    12 1
     9     4     7 ar
    10     4    13 1
    11     5     6 ar
    12     5    14 1
    13     6     7 ar
    14     6    15 1
    15     7     8 1
    16     8    16 1
@<TRIPOS>SUBSTRUCTURE
     1 PCR         1 TEMP              0 ****  ****    0 ROOT
