@<TRIPOS>MOLECULE
PCR
   16    16     1     0     0
SMALL
bcc


@<TRIPOS>ATOM
      1 CB          0.0060   -0.0440    0.0150 c3        1 PCR     -0.048800
      2 CG          1.4850    0.0220   -0.0190 ca        1 PCR     -0.112300
      3 CD1         2.2180    0.1510    1.1640 ca        1 PCR     -0.095000
      4 CE1         3.6100    0.1990    1.1370 ca        1 PCR     -0.181500
      5 CD2         2.1650   -0.0560   -1.2420 ca        1 PCR     -0.095000
      6 CE2         3.5530   -0.0100   -1.2930 ca        1 PCR     -0.181500
      7 CZ          4.2740    0.1180   -0.0940 ca        1 PCR      0.118100
      8 OH          5.6460    0.1590   -0.2030 oh        1 PCR     -0.499100
      9 HB1        -0.4360    0.4610   -0.8780 hc        1 PCR      0.042700
     10 HB2        -0.3300   -1.1120    0.0150 hc        1 PCR      0.042700
     11 HB3        -0.3980    0.4480    0.9340 hc        1 PCR      0.042700
     12 HD11        1.6920    0.2150    2.1290 ha        1 PCR      0.133000
     13 HE11        4.1810    0.3000    2.0710 ha        1 PCR      0.140500
     14 HD21        1.5910   -0.1550   -2.1770 ha        1 PCR      0.133000
     15 HE21        4.0930   -0.0710   -2.2470 ha        1 PCR      0.140500
     16 HO1         6.0130    0.2480    0.6880 ho        1 PCR      0.418000
@<TRIPOS>BOND
     1    1    2 1   
     2    1    9 1   
     3    1   10 1   
     4    1   11 1   
     5    2    3 ar  
     6    2    5 ar  
     7    3    4 ar  
     8    3   12 1   
     9    4    7 ar  
    10    4   13 1   
    11    5    6 ar  
    12    5   14 1   
    13    6    7 ar  
    14    6   15 1   
    15    7    8 1   
    16    8   16 1   
@<TRIPOS>SUBSTRUCTURE
     1 PCR         1 TEMP              0 ****  ****    0 ROOT
