@<TRIPOS>MOLECULE
PCT
   12    11     1     0     0
SMALL
bcc


@<TRIPOS>ATOM
      1 P           0.1390    0.0200    0.0490 p5        1 PCT      1.199700
      2 O1P         1.5760    0.2500   -0.3630 o         1 PCT     -0.931833
      3 O2P        -0.2110    0.4770    1.4380 o         1 PCT     -0.931833
      4 O3P        -0.4710   -1.2790   -0.3860 o         1 PCT     -0.931833
      5 C1P        -0.7580    1.3790   -0.9920 c3        1 PCT     -0.341600
      6 C1         -0.2110    1.6390   -2.3220 c         1 PCT      0.694100
      7 O1         -0.8520    1.4780   -3.4000 o         1 PCT     -0.757100
      8 N1          1.1050    2.1480   -2.4270 n         1 PCT     -0.650000
      9 H1P1       -0.6390    2.2380   -0.3030 hc        1 PCT      0.055200
     10 H1P2       -1.8100    1.0440   -1.0440 hc        1 PCT      0.055200
     11 HN11        1.5240    1.9500   -3.3090 hn        1 PCT      0.270000
     12 HN12        1.6680    1.8100   -1.6520 hn        1 PCT      0.270000
@<TRIPOS>BOND
     1    1    2 1
     2    1    3 1
     3    1    4 1
     4    1    5 1
     5    5    6 1
     6    5    9 1
     7    5   10 1
     8    6    7 2
     9    6    8 1
    10    8   11 1
    11    8   12 1
@<TRIPOS>SUBSTRUCTURE
     1 PCT         1 TEMP              0 ****  ****    0 ROOT
