@<TRIPOS>MOLECULE
PCV
   28    28     1     0     0
SMALL
bcc


@<TRIPOS>ATOM
      1 N1           0.0000     0.0000     0.0000 nj         1 PCV      -0.176800
      2 C8           1.3460     0.0000     0.0000 c          1 PCV       0.644500
      3 O1           2.1550     0.0030    -0.9030 o          1 PCV      -0.616500
      4 C9           1.5100     0.0000     1.4970 cy         1 PCV      -0.152400
      5 C7          -0.0180    -0.0070     1.4630 cy         1 PCV       0.048000
      6 C1          -1.0290    -0.0010    -1.0430 c3         1 PCV      -0.050300
      7 C2          -0.8810     1.2520    -1.9070 c3         1 PCV       0.200100
      8 C4          -0.9170     2.4950    -1.0150 c3         1 PCV      -0.071400
      9 C5          -0.8930     3.7510    -1.8870 c3         1 PCV      -0.058200
     10 N2          -0.9280     4.9430    -1.0310 nz         1 PCV       0.079400
     11 O3           0.3650     1.2040    -2.6060 oh         1 PCV      -0.555800
     12 C3          -0.8710    -1.2270    -1.9040 c          1 PCV       0.963600
     13 O2          -1.7100    -1.4400    -2.9310 o          1 PCV      -0.856300
     14 O4           0.0110    -2.0190    -1.6710 o          1 PCV      -0.856300
     15 HC91         1.9310     0.9190     1.8870 hc         1 PCV       0.043200
     16 HC92         1.9390    -0.9160     1.8860 hc         1 PCV       0.043200
     17 HC71        -0.4480     0.8970     1.8780 h1         1 PCV       0.005200
     18 HC72        -0.4390    -0.9190     1.8690 h1         1 PCV       0.005200
     19 HC1         -2.0100    -0.0070    -0.5820 h1         1 PCV       0.030700
     20 H22         -1.6940     1.2970    -2.6220 h1         1 PCV       0.031700
     21 HC41        -0.0540     2.4940    -0.3600 hc         1 PCV       0.037200
     22 HC42        -1.8220     2.4860    -0.4200 hc         1 PCV       0.037200
     23 HC51        -1.7560     3.7510    -2.5420 hx         1 PCV       0.087700
     24 HC52         0.0120     3.7600    -2.4830 hx         1 PCV       0.087700
     25 HN21        -0.1290     4.9440    -0.4280 hn         1 PCV       0.216133
     26 HN22        -1.7630     4.9340    -0.4800 hn         1 PCV       0.216133
     27 HO3          0.2050     1.1990    -3.5350 ho         1 PCV       0.400000
     28 H23         -0.9740     5.7630    -1.6040 hn         1 PCV       0.216133
@<TRIPOS>BOND
     1     1     2 1   
     2     1     5 1   
     3     1     6 1   
     4     2     3 2   
     5     2     4 1   
     6     4     5 1   
     7     4    15 1   
     8     4    16 1   
     9     5    17 1   
    10     5    18 1   
    11     6     7 1   
    12     6    12 1   
    13     6    19 1   
    14     7     8 1   
    15     7    11 1   
    16     7    20 1   
    17     8     9 1   
    18     8    21 1   
    19     8    22 1   
    20     9    10 1   
    21     9    23 1   
    22     9    24 1   
    23    10    25 1   
    24    10    26 1   
    25    10    28 1   
    26    11    27 1   
    27    12    13 1   
    28    12    14 1   
@<TRIPOS>SUBSTRUCTURE
     1 PCV         1 TEMP              0 ****  ****    0 ROOT
