@<TRIPOS>MOLECULE
PCW
  138   137     1     0     0
SMALL
bcc


@<TRIPOS>ATOM
      1 C1           0.0000     0.0000     0.0000 c3         1 PCW       0.225400
      2 C2           1.5300     0.0000     0.0000 c3         1 PCW       0.168100
      3 C3           2.0410     0.0000     1.4410 c3         1 PCW       0.238400
      4 C4          -4.1070    -2.0030     1.7030 c3         1 PCW       0.229400
      5 C5          -4.7490    -3.0610     2.6030 c3         1 PCW      -0.034200
      6 C6          -4.8900    -1.4930     4.4130 c3         1 PCW       0.009100
      7 C7          -4.9550    -3.8480     4.8590 c3         1 PCW       0.009100
      8 C8          -2.9140    -2.8220     4.1300 c3         1 PCW       0.009100
      9 C11          1.7700    -1.3230     3.4510 c          1 PCW       0.689100
     10 C12          1.1700    -2.4880     4.1960 c3         1 PCW      -0.065400
     11 C13          1.6800    -2.4880     5.6380 c3         1 PCW      -0.024400
     12 C14          1.0710    -3.6700     6.3940 c3         1 PCW      -0.026400
     13 C15          1.5810    -3.6700     7.8370 c3         1 PCW      -0.028400
     14 C16          0.9720    -4.8530     8.5930 c3         1 PCW      -0.028400
     15 C17          1.4830    -4.8530    10.0360 c3         1 PCW      -0.023400
     16 C18          0.8730    -6.0350    10.7920 c3         1 PCW      -0.004200
     17 C19          1.3760    -6.0360    12.2130 c2         1 PCW      -0.157200
     18 C20          0.5260    -6.0690    13.2080 c2         1 PCW      -0.157200
     19 C21         -0.9410    -6.2850    12.9390 c3         1 PCW      -0.004200
     20 C22         -1.4520    -7.4420    13.8010 c3         1 PCW      -0.024400
     21 C23         -2.9420    -7.6620    13.5280 c3         1 PCW      -0.029400
     22 C24         -3.4530    -8.8190    14.3890 c3         1 PCW      -0.029400
     23 C25         -4.9420    -9.0370    14.1160 c3         1 PCW      -0.029400
     24 C26         -5.4540   -10.1940    14.9780 c3         1 PCW      -0.030400
     25 C27         -6.9430   -10.4130    14.7050 c3         1 PCW      -0.028400
     26 C28         -7.4550   -11.5700    15.5660 c3         1 PCW       0.006900
     27 C32          2.7390    -2.3810    -2.7200 c3         1 PCW      -0.068400
     28 C33          2.9080    -2.0760    -4.2100 c3         1 PCW      -0.021400
     29 C34          3.4180    -3.3260    -4.9320 c3         1 PCW      -0.030400
     30 C35          3.5870    -3.0200    -6.4210 c3         1 PCW      -0.027400
     31 C36          4.0960    -4.2690    -7.1430 c3         1 PCW      -0.029400
     32 C37          4.2650    -3.9640    -8.6330 c3         1 PCW      -0.023400
     33 C38          4.7750    -5.2120    -9.3550 c3         1 PCW      -0.005200
     34 C39          4.9410    -4.9120   -10.8220 c2         1 PCW      -0.155200
     35 C40          6.0840    -5.1550   -11.4140 c2         1 PCW      -0.160200
     36 C41          7.1720    -5.8950   -10.6800 c3         1 PCW      -0.004200
     37 C42          7.6330    -7.0890   -11.5190 c3         1 PCW      -0.024400
     38 C43          8.7360    -7.8400   -10.7730 c3         1 PCW      -0.029400
     39 C44          9.1970    -9.0340   -11.6130 c3         1 PCW      -0.029400
     40 C45         10.3010    -9.7870   -10.8670 c3         1 PCW      -0.029400
     41 C46         10.7620   -10.9800   -11.7060 c3         1 PCW      -0.029400
     42 C47         11.8660   -11.7320   -10.9600 c3         1 PCW      -0.028400
     43 C48         12.3260   -12.9260   -11.8000 c3         1 PCW       0.005900
     44 N           -4.3770    -2.8070     4.0010 n4         1 PCW       0.062200
     45 O2           2.0140    -1.1850    -0.6860 os         1 PCW      -0.403900
     46 O3           1.4630    -1.1220     2.1590 os         1 PCW      -0.361900
     47 O11          2.5290    -0.5710     4.0150 o          1 PCW      -0.610000
     48 O31          2.0350    -0.1350    -2.6290 o          1 PCW      -0.596000
     49 O1P         -2.5910    -1.2850    -0.7780 o          1 PCW      -0.660500
     50 O2P         -2.5390     0.2870     1.1960 o          1 PCW      -0.660500
     51 O3P         -0.4760    -1.1040     0.7730 os         1 PCW      -0.444200
     52 O4P         -2.6900    -2.1840     1.6910 os         1 PCW      -0.489200
     53 P           -2.0840    -1.0420     0.7310 p5         1 PCW       0.893800
     54 H11         -0.3610     0.9260     0.4310 h1         1 PCW       0.027700
     55 H12         -0.3610    -0.0890    -1.0170 h1         1 PCW       0.027700
     56 H2           1.8910     0.8850    -0.5110 h1         1 PCW       0.039700
     57 H31          1.7540     0.9250     1.9260 h1         1 PCW       0.009200
     58 H32          3.1210    -0.0890     1.4420 h1         1 PCW       0.009200
     59 H41         -4.4930    -2.1040     0.6960 h1         1 PCW       0.047200
     60 H42         -4.3420    -1.0160     2.0830 h1         1 PCW       0.047200
     61 H51         -5.8260    -3.0160     2.5020 hx         1 PCW       0.066200
     62 H52         -4.4000    -4.0440     2.3100 hx         1 PCW       0.066200
     63 H61         -4.2240    -0.7170     4.0570 hx         1 PCW       0.070700
     64 H62         -4.9490    -1.4500     5.4940 hx         1 PCW       0.070700
     65 H63         -5.8770    -1.3430     3.9920 hx         1 PCW       0.070700
     66 H71         -4.7050    -3.6450     5.8930 hx         1 PCW       0.070700
     67 H72         -4.5560    -4.8140     4.5740 hx         1 PCW       0.070700
     68 H73         -6.0320    -3.8550     4.7430 hx         1 PCW       0.070700
     69 H81         -2.5010    -3.5700     3.4650 hx         1 PCW       0.070700
     70 H82         -2.6440    -3.0600     5.1520 hx         1 PCW       0.070700
     71 H83         -2.5180    -1.8480     3.8690 hx         1 PCW       0.070700
     72 H121         1.4570    -3.4130     3.7110 hc         1 PCW       0.027700
     73 H122         0.0900    -2.4000     4.1940 hc         1 PCW       0.027700
     74 H131         2.7600    -2.5760     5.6390 hc         1 PCW       0.032200
     75 H132         1.3930    -1.5630     6.1220 hc         1 PCW       0.032200
     76 H141        -0.0080    -3.5820     6.3930 hc         1 PCW       0.004200
     77 H142         1.3580    -4.5950     5.9100 hc         1 PCW       0.004200
     78 H151         2.6610    -3.7590     7.8380 hc         1 PCW       0.019700
     79 H152         1.2940    -2.7450     8.3220 hc         1 PCW       0.019700
     80 H161         1.2580    -5.7780     8.1080 hc         1 PCW       0.009200
     81 H162        -0.1080    -4.7640     8.5920 hc         1 PCW       0.009200
     82 H171         1.1970    -3.9280    10.5210 hc         1 PCW       0.017700
     83 H172         2.5630    -4.9420    10.0370 hc         1 PCW       0.017700
     84 H181         1.1590    -6.9600    10.3070 hc         1 PCW       0.025200
     85 H182        -0.2070    -5.9450    10.7910 hc         1 PCW       0.025200
     86 H19          2.4300    -5.8810    12.4100 ha         1 PCW       0.105000
     87 H20          0.8910    -6.0690    14.2280 ha         1 PCW       0.104000
     88 H211        -1.4890    -5.3830    13.1830 hc         1 PCW       0.024700
     89 H212        -1.0850    -6.5240    11.8930 hc         1 PCW       0.024700
     90 H221        -0.9040    -8.3430    13.5580 hc         1 PCW       0.017200
     91 H222        -1.3090    -7.2030    14.8480 hc         1 PCW       0.017200
     92 H231        -3.4900    -6.7600    13.7720 hc         1 PCW       0.012200
     93 H232        -3.0850    -7.9000    12.4810 hc         1 PCW       0.012200
     94 H241        -2.9050    -9.7200    14.1440 hc         1 PCW       0.016200
     95 H242        -3.3090    -8.5810    15.4360 hc         1 PCW       0.016200
     96 H251        -5.4900    -8.1350    14.3600 hc         1 PCW       0.012700
     97 H252        -5.0860    -9.2750    13.0690 hc         1 PCW       0.012700
     98 H261        -5.3100    -9.9560    16.0250 hc         1 PCW       0.015700
     99 H262        -4.9060   -11.0960    14.7340 hc         1 PCW       0.015700
    100 H271        -7.0870   -10.6510    13.6580 hc         1 PCW       0.011200
    101 H272        -7.4910    -9.5110    14.9490 hc         1 PCW       0.011200
    102 H281        -7.2890   -11.3420    16.6120 hc         1 PCW       0.000700
    103 H282        -6.9230   -12.4770    15.3050 hc         1 PCW       0.000700
    104 H283        -8.5150   -11.7100    15.3900 hc         1 PCW       0.000700
    105 H321         3.6930    -2.6760    -2.3000 hc         1 PCW       0.033700
    106 H322         2.0250    -3.1870    -2.5950 hc         1 PCW       0.033700
    107 H331         3.6220    -1.2710    -4.3350 hc         1 PCW       0.030700
    108 H332         1.9540    -1.7810    -4.6290 hc         1 PCW       0.030700
    109 H341         2.7050    -4.1310    -4.8070 hc         1 PCW       0.011700
    110 H342         4.3720    -3.6200    -4.5130 hc         1 PCW       0.011700
    111 H351         4.3000    -2.2150    -6.5460 hc         1 PCW       0.017200
    112 H352         2.6320    -2.7250    -6.8400 hc         1 PCW       0.017200
    113 H361         5.0510    -4.5640    -6.7250 hc         1 PCW       0.012700
    114 H362         3.3830    -5.0750    -7.0190 hc         1 PCW       0.012700
    115 H371         3.3110    -3.6690    -9.0520 hc         1 PCW       0.016200
    116 H372         4.9790    -3.1580    -8.7580 hc         1 PCW       0.016200
    117 H381         5.7290    -5.5070    -8.9360 hc         1 PCW       0.026200
    118 H382         4.0610    -6.0180    -9.2300 hc         1 PCW       0.026200
    119 H39          4.1620    -4.3790   -11.3540 ha         1 PCW       0.102000
    120 H40          6.2010    -4.9370   -12.4690 ha         1 PCW       0.101000
    121 H411         8.0090    -5.2300   -10.5080 hc         1 PCW       0.026700
    122 H412         6.7900    -6.2490    -9.7300 hc         1 PCW       0.026700
    123 H421         8.0150    -6.7360   -12.4690 hc         1 PCW       0.015200
    124 H422         6.7960    -7.7540   -11.6920 hc         1 PCW       0.015200
    125 H431         9.5740    -7.1750   -10.6020 hc         1 PCW       0.014200
    126 H432         8.3550    -8.1930    -9.8230 hc         1 PCW       0.014200
    127 H441         9.5790    -8.6810   -12.5630 hc         1 PCW       0.014700
    128 H442         8.3590    -9.6990   -11.7850 hc         1 PCW       0.014700
    129 H451        11.1380    -9.1210   -10.6940 hc         1 PCW       0.014700
    130 H452         9.9190   -10.1400    -9.9170 hc         1 PCW       0.014700
    131 H461        11.1440   -10.6270   -12.6560 hc         1 PCW       0.014700
    132 H462         9.9250   -11.6450   -11.8790 hc         1 PCW       0.014700
    133 H471        12.7040   -11.0670   -10.7880 hc         1 PCW       0.011700
    134 H472        11.4840   -12.0850   -10.0100 hc         1 PCW       0.011700
    135 H481        11.4870   -13.5860   -11.9800 hc         1 PCW       0.000033
    136 H482        12.7170   -12.5720   -12.7470 hc         1 PCW       0.000033
    137 H483        13.1020   -13.4640   -11.2680 hc         1 PCW       0.000033
    138 C31          2.2360    -1.1520    -2.0090 c          1 PCW       0.700100
@<TRIPOS>BOND
     1     1     2 1   
     2     1    51 1   
     3     1    54 1   
     4     1    55 1   
     5     2     3 1   
     6     2    45 1   
     7     2    56 1   
     8     3    46 1   
     9     3    57 1   
    10     3    58 1   
    11     4     5 1   
    12     4    52 1   
    13     4    59 1   
    14     4    60 1   
    15     5    44 1   
    16     5    61 1   
    17     5    62 1   
    18     6    44 1   
    19     6    63 1   
    20     6    64 1   
    21     6    65 1   
    22     7    44 1   
    23     7    66 1   
    24     7    67 1   
    25     7    68 1   
    26     8    44 1   
    27     8    69 1   
    28     8    70 1   
    29     8    71 1   
    30     9    10 1   
    31     9    46 1   
    32     9    47 2   
    33    10    11 1   
    34    10    72 1   
    35    10    73 1   
    36    11    12 1   
    37    11    74 1   
    38    11    75 1   
    39    12    13 1   
    40    12    76 1   
    41    12    77 1   
    42    13    14 1   
    43    13    78 1   
    44    13    79 1   
    45    14    15 1   
    46    14    80 1   
    47    14    81 1   
    48    15    16 1   
    49    15    82 1   
    50    15    83 1   
    51    16    17 1   
    52    16    84 1   
    53    16    85 1   
    54    17    18 2   
    55    17    86 1   
    56    18    19 1   
    57    18    87 1   
    58    19    20 1   
    59    19    88 1   
    60    19    89 1   
    61    20    21 1   
    62    20    90 1   
    63    20    91 1   
    64    21    22 1   
    65    21    92 1   
    66    21    93 1   
    67    22    23 1   
    68    22    94 1   
    69    22    95 1   
    70    23    24 1   
    71    23    96 1   
    72    23    97 1   
    73    24    25 1   
    74    24    98 1   
    75    24    99 1   
    76    25    26 1   
    77    25   100 1   
    78    25   101 1   
    79    26   102 1   
    80    26   103 1   
    81    26   104 1   
    82    27    28 1   
    83    27   105 1   
    84    27   106 1   
    85    27   138 1   
    86    28    29 1   
    87    28   107 1   
    88    28   108 1   
    89    29    30 1   
    90    29   109 1   
    91    29   110 1   
    92    30    31 1   
    93    30   111 1   
    94    30   112 1   
    95    31    32 1   
    96    31   113 1   
    97    31   114 1   
    98    32    33 1   
    99    32   115 1   
   100    32   116 1   
   101    33    34 1   
   102    33   117 1   
   103    33   118 1   
   104    34    35 2   
   105    34   119 1   
   106    35    36 1   
   107    35   120 1   
   108    36    37 1   
   109    36   121 1   
   110    36   122 1   
   111    37    38 1   
   112    37   123 1   
   113    37   124 1   
   114    38    39 1   
   115    38   125 1   
   116    38   126 1   
   117    39    40 1   
   118    39   127 1   
   119    39   128 1   
   120    40    41 1   
   121    40   129 1   
   122    40   130 1   
   123    41    42 1   
   124    41   131 1   
   125    41   132 1   
   126    42    43 1   
   127    42   133 1   
   128    42   134 1   
   129    43   135 1   
   130    43   136 1   
   131    43   137 1   
   132    45   138 1   
   133    48   138 2   
   134    49    53 1   
   135    50    53 1   
   136    51    53 1   
   137    52    53 1   
@<TRIPOS>SUBSTRUCTURE
     1 PCW         1 TEMP              0 ****  ****    0 ROOT
