@<TRIPOS>MOLECULE
molecule
  138   137     1     0     0
SMALL
bcc


@<TRIPOS>ATOM
      1 C1           0.0000     0.0000     0.0000 c3         1 PCW       0.137400
      2 C2           1.5300     0.0000     0.0000 c3         1 PCW       0.157100
      3 C3           2.0410     0.0000     1.4410 c3         1 PCW       0.166400
      4 C4          -4.1070    -2.0030     1.7030 c3         1 PCW       0.133400
      5 C5          -4.7490    -3.0610     2.6030 c3         1 PCW       0.099800
      6 C6          -4.8900    -1.4930     4.4130 c3         1 PCW       0.097100
      7 C7          -4.9550    -3.8480     4.8590 c3         1 PCW       0.097100
      8 C8          -2.9140    -2.8220     4.1300 c3         1 PCW       0.097100
      9 C11          1.7700    -1.3230     3.4510 c          1 PCW       0.630100
     10 C12          1.1700    -2.4880     4.1960 c3         1 PCW      -0.121400
     11 C13          1.6800    -2.4880     5.6380 c3         1 PCW      -0.075400
     12 C14          1.0710    -3.6700     6.3940 c3         1 PCW      -0.082400
     13 C15          1.5810    -3.6700     7.8370 c3         1 PCW      -0.079400
     14 C16          0.9720    -4.8530     8.5930 c3         1 PCW      -0.090400
     15 C17          1.4830    -4.8530    10.0360 c3         1 PCW      -0.097400
     16 C18          0.8730    -6.0350    10.7920 c3         1 PCW       0.064800
     17 C19          1.3760    -6.0360    12.2130 c2         1 PCW      -0.226200
     18 C20          0.5260    -6.0690    13.2080 c2         1 PCW      -0.226200
     19 C21         -0.9410    -6.2850    12.9390 c3         1 PCW       0.066800
     20 C22         -1.4520    -7.4420    13.8010 c3         1 PCW      -0.097400
     21 C23         -2.9420    -7.6620    13.5280 c3         1 PCW      -0.090400
     22 C24         -3.4530    -8.8190    14.3890 c3         1 PCW      -0.080400
     23 C25         -4.9420    -9.0370    14.1160 c3         1 PCW      -0.082400
     24 C26         -5.4540   -10.1940    14.9780 c3         1 PCW      -0.081400
     25 C27         -6.9430   -10.4130    14.7050 c3         1 PCW      -0.084400
     26 C28         -7.4550   -11.5700    15.5660 c3         1 PCW      -0.092100
     27 C32          2.7390    -2.3810    -2.7200 c3         1 PCW      -0.123400
     28 C33          2.9080    -2.0760    -4.2100 c3         1 PCW      -0.072400
     29 C34          3.4180    -3.3260    -4.9320 c3         1 PCW      -0.084400
     30 C35          3.5870    -3.0200    -6.4210 c3         1 PCW      -0.078400
     31 C36          4.0960    -4.2690    -7.1430 c3         1 PCW      -0.090400
     32 C37          4.2650    -3.9640    -8.6330 c3         1 PCW      -0.097400
     33 C38          4.7750    -5.2120    -9.3550 c3         1 PCW       0.063800
     34 C39          4.9410    -4.9120   -10.8220 c2         1 PCW      -0.227200
     35 C40          6.0840    -5.1550   -11.4140 c2         1 PCW      -0.235200
     36 C41          7.1720    -5.8950   -10.6800 c3         1 PCW       0.068800
     37 C42          7.6330    -7.0890   -11.5190 c3         1 PCW      -0.097400
     38 C43          8.7360    -7.8400   -10.7730 c3         1 PCW      -0.090400
     39 C44          9.1970    -9.0340   -11.6130 c3         1 PCW      -0.080400
     40 C45         10.3010    -9.7870   -10.8670 c3         1 PCW      -0.082400
     41 C46         10.7620   -10.9800   -11.7060 c3         1 PCW      -0.081400
     42 C47         11.8660   -11.7320   -10.9600 c3         1 PCW      -0.084400
     43 C48         12.3260   -12.9260   -11.8000 c3         1 PCW      -0.092100
     44 N           -4.3770    -2.8070     4.0010 n4         1 PCW      -0.569800
     45 O2           2.0140    -1.1850    -0.6860 os         1 PCW      -0.420900
     46 O3           1.4630    -1.1220     2.1590 os         1 PCW      -0.383900
     47 O11          2.5290    -0.5710     4.0150 o          1 PCW      -0.569000
     48 O31          2.0350    -0.1350    -2.6290 o          1 PCW      -0.557000
     49 O1P         -2.5910    -1.2850    -0.7780 o          1 PCW      -0.797000
     50 O2P         -2.5390     0.2870     1.1960 o          1 PCW      -0.797000
     51 O3P         -0.4760    -1.1040     0.7730 os         1 PCW      -0.523200
     52 O4P         -2.6900    -2.1840     1.6910 os         1 PCW      -0.557200
     53 P           -2.0840    -1.0420     0.7310 p5         1 PCW       1.248800
     54 H11         -0.3610    -0.0890    -1.0170 h1         1 PCW       0.073700
     55 H12         -0.3610     0.9260     0.4310 h1         1 PCW       0.073700
     56 H2           1.8910     0.8850    -0.5110 h1         1 PCW       0.080700
     57 H31          1.7540     0.9250     1.9260 h1         1 PCW       0.054200
     58 H32          3.1210    -0.0890     1.4420 h1         1 PCW       0.054200
     59 H41         -4.3420    -1.0160     2.0830 h1         1 PCW       0.093700
     60 H42         -4.4930    -2.1040     0.6960 h1         1 PCW       0.093700
     61 H51         -5.8260    -3.0160     2.5020 hx         1 PCW       0.094200
     62 H52         -4.4000    -4.0440     2.3100 hx         1 PCW       0.094200
     63 H61         -4.9430    -1.4480     5.4940 hx         1 PCW       0.095144
     64 H62         -5.8800    -1.3450     3.9970 hx         1 PCW       0.095144
     65 H63         -4.2270    -0.7170     4.0510 hx         1 PCW       0.095144
     66 H71         -4.7130    -3.6400     5.8940 hx         1 PCW       0.095144
     67 H72         -6.0320    -3.8620     4.7360 hx         1 PCW       0.095144
     68 H73         -4.5480    -4.8130     4.5810 hx         1 PCW       0.095144
     69 H81         -2.6440    -3.0600     5.1520 hx         1 PCW       0.095144
     70 H82         -2.5010    -3.5700     3.4650 hx         1 PCW       0.095144
     71 H83         -2.5180    -1.8480     3.8690 hx         1 PCW       0.095144
     72 H121         1.4570    -3.4130     3.7110 hc         1 PCW       0.061700
     73 H122         0.0900    -2.4000     4.1940 hc         1 PCW       0.061700
     74 H131         1.3930    -1.5630     6.1220 hc         1 PCW       0.062200
     75 H132         2.7600    -2.5760     5.6390 hc         1 PCW       0.062200
     76 H141        -0.0080    -3.5820     6.3930 hc         1 PCW       0.031200
     77 H142         1.3580    -4.5950     5.9100 hc         1 PCW       0.031200
     78 H151         1.2940    -2.7450     8.3220 hc         1 PCW       0.049700
     79 H152         2.6610    -3.7590     7.8380 hc         1 PCW       0.049700
     80 H161         1.2580    -5.7780     8.1080 hc         1 PCW       0.034200
     81 H162        -0.1080    -4.7640     8.5920 hc         1 PCW       0.034200
     82 H171         2.5630    -4.9420    10.0370 hc         1 PCW       0.057700
     83 H172         1.1970    -3.9280    10.5210 hc         1 PCW       0.057700
     84 H181         1.1590    -6.9600    10.3070 hc         1 PCW       0.041700
     85 H182        -0.2070    -5.9450    10.7910 hc         1 PCW       0.041700
     86 H19          1.1290    -6.9630    11.7110 ha         1 PCW       0.070000
     87 H20         -0.1180    -5.2390    12.9440 ha         1 PCW       0.068000
     88 H211        -1.4900    -5.3830    13.1830 hc         1 PCW       0.041200
     89 H212        -1.0850    -6.5240    11.8930 hc         1 PCW       0.041200
     90 H221        -1.3090    -7.2030    14.8480 hc         1 PCW       0.057200
     91 H222        -0.9040    -8.3430    13.5580 hc         1 PCW       0.057200
     92 H231        -3.0850    -7.9000    12.4810 hc         1 PCW       0.036700
     93 H232        -3.4900    -6.7600    13.7720 hc         1 PCW       0.036700
     94 H241        -2.9050    -9.7200    14.1440 hc         1 PCW       0.044700
     95 H242        -3.3090    -8.5810    15.4360 hc         1 PCW       0.044700
     96 H251        -5.0860    -9.2750    13.0690 hc         1 PCW       0.038700
     97 H252        -5.4900    -8.1350    14.3600 hc         1 PCW       0.038700
     98 H261        -5.3100    -9.9560    16.0250 hc         1 PCW       0.043200
     99 H262        -4.9060   -11.0960    14.7340 hc         1 PCW       0.043200
    100 H271        -7.0870   -10.6510    13.6580 hc         1 PCW       0.038700
    101 H272        -7.4910    -9.5110    14.9490 hc         1 PCW       0.038700
    102 H281        -6.9070   -12.4720    15.3210 hc         1 PCW       0.033700
    103 H282        -8.5100   -11.7240    15.3730 hc         1 PCW       0.033700
    104 H283        -7.3100   -11.3330    16.6130 hc         1 PCW       0.033700
    105 H321         2.0250    -3.1870    -2.5950 hc         1 PCW       0.070200
    106 H322         3.6930    -2.6760    -2.3000 hc         1 PCW       0.070200
    107 H331         1.9540    -1.7810    -4.6290 hc         1 PCW       0.060700
    108 H332         3.6220    -1.2710    -4.3350 hc         1 PCW       0.060700
    109 H341         2.7050    -4.1310    -4.8070 hc         1 PCW       0.038700
    110 H342         4.3720    -3.6200    -4.5130 hc         1 PCW       0.038700
    111 H351         4.3000    -2.2150    -6.5460 hc         1 PCW       0.047200
    112 H352         2.6320    -2.7250    -6.8400 hc         1 PCW       0.047200
    113 H361         5.0510    -4.5640    -6.7250 hc         1 PCW       0.037700
    114 H362         3.3830    -5.0750    -7.0190 hc         1 PCW       0.037700
    115 H371         3.3110    -3.6690    -9.0520 hc         1 PCW       0.056200
    116 H372         4.9790    -3.1580    -8.7580 hc         1 PCW       0.056200
    117 H381         5.7290    -5.5070    -8.9360 hc         1 PCW       0.043700
    118 H382         4.0610    -6.0180    -9.2300 hc         1 PCW       0.043700
    119 H39          4.6780    -5.9080   -10.4860 ha         1 PCW       0.071000
    120 H40          6.7630    -4.6310   -10.7520 ha         1 PCW       0.069000
    121 H411         6.7900    -6.2490    -9.7300 hc         1 PCW       0.043700
    122 H412         8.0090    -5.2300   -10.5080 hc         1 PCW       0.043700
    123 H421         8.0150    -6.7360   -12.4700 hc         1 PCW       0.054700
    124 H422         6.7960    -7.7540   -11.6920 hc         1 PCW       0.054700
    125 H431         8.3550    -8.1930    -9.8230 hc         1 PCW       0.038700
    126 H432         9.5740    -7.1750   -10.6020 hc         1 PCW       0.038700
    127 H441         9.5790    -8.6810   -12.5630 hc         1 PCW       0.043200
    128 H442         8.3590    -9.6990   -11.7850 hc         1 PCW       0.043200
    129 H451         9.9190   -10.1400    -9.9170 hc         1 PCW       0.040200
    130 H452        11.1380    -9.1210   -10.6940 hc         1 PCW       0.040200
    131 H461        11.1440   -10.6270   -12.6560 hc         1 PCW       0.041700
    132 H462         9.9250   -11.6450   -11.8790 hc         1 PCW       0.041700
    133 H471        11.4840   -12.0850   -10.0100 hc         1 PCW       0.039700
    134 H472        12.7040   -11.0670   -10.7880 hc         1 PCW       0.039700
    135 H481        12.6740   -12.5760   -12.7650 hc         1 PCW       0.032700
    136 H482        13.1340   -13.4370   -11.2890 hc         1 PCW       0.032700
    137 H483        11.4980   -13.6100   -11.9400 hc         1 PCW       0.032700
    138 C31          2.2360    -1.1520    -2.0090 c          1 PCW       0.638100
@<TRIPOS>BOND
     1     1     2 1
     2     1    51 1
     3     1    54 1
     4     1    55 1
     5     2     3 1
     6     2    45 1
     7     2    56 1
     8     3    46 1
     9     3    57 1
    10     3    58 1
    11     4     5 1
    12     4    52 1
    13     4    59 1
    14     4    60 1
    15     5    44 1
    16     5    61 1
    17     5    62 1
    18     6    44 1
    19     6    63 1
    20     6    64 1
    21     6    65 1
    22     7    44 1
    23     7    66 1
    24     7    67 1
    25     7    68 1
    26     8    44 1
    27     8    69 1
    28     8    70 1
    29     8    71 1
    30     9    10 1
    31     9    46 1
    32     9    47 2
    33    10    11 1
    34    10    72 1
    35    10    73 1
    36    11    12 1
    37    11    74 1
    38    11    75 1
    39    12    13 1
    40    12    76 1
    41    12    77 1
    42    13    14 1
    43    13    78 1
    44    13    79 1
    45    14    15 1
    46    14    80 1
    47    14    81 1
    48    15    16 1
    49    15    82 1
    50    15    83 1
    51    16    17 1
    52    16    84 1
    53    16    85 1
    54    17    18 2
    55    17    86 1
    56    18    19 1
    57    18    87 1
    58    19    20 1
    59    19    88 1
    60    19    89 1
    61    20    21 1
    62    20    90 1
    63    20    91 1
    64    21    22 1
    65    21    92 1
    66    21    93 1
    67    22    23 1
    68    22    94 1
    69    22    95 1
    70    23    24 1
    71    23    96 1
    72    23    97 1
    73    24    25 1
    74    24    98 1
    75    24    99 1
    76    25    26 1
    77    25   100 1
    78    25   101 1
    79    26   102 1
    80    26   103 1
    81    26   104 1
    82   138    27 1
    83   138    45 1
    84   138    48 2
    85    27    28 1
    86    27   105 1
    87    27   106 1
    88    28    29 1
    89    28   107 1
    90    28   108 1
    91    29    30 1
    92    29   109 1
    93    29   110 1
    94    30    31 1
    95    30   111 1
    96    30   112 1
    97    31    32 1
    98    31   113 1
    99    31   114 1
   100    32    33 1
   101    32   115 1
   102    32   116 1
   103    33    34 1
   104    33   117 1
   105    33   118 1
   106    34    35 2
   107    34   119 1
   108    35    36 1
   109    35   120 1
   110    36    37 1
   111    36   121 1
   112    36   122 1
   113    37    38 1
   114    37   123 1
   115    37   124 1
   116    38    39 1
   117    38   125 1
   118    38   126 1
   119    39    40 1
   120    39   127 1
   121    39   128 1
   122    40    41 1
   123    40   129 1
   124    40   130 1
   125    41    42 1
   126    41   131 1
   127    41   132 1
   128    42    43 1
   129    42   133 1
   130    42   134 1
   131    43   135 1
   132    43   136 1
   133    43   137 1
   134    49    53 1
   135    50    53 1
   136    51    53 1
   137    52    53 1
@<TRIPOS>SUBSTRUCTURE
     1 PCW         1 TEMP              0 ****  ****    0 ROOT
