@<TRIPOS>MOLECULE
PCX
   32    32     1     0     0
SMALL
bcc


@<TRIPOS>ATOM
      1 N1           0.0000     0.0000     0.0000 nj         1 PCX      -0.146800
      2 C1          -0.9790    -0.0000    -1.0870 c3         1 PCX      -0.063300
      3 C2          -0.8280    -1.2400    -1.9810 c3         1 PCX      -0.006400
      4 C4          -1.1060    -2.5760    -1.2740 c3         1 PCX      -0.040400
      5 C5          -0.9990    -3.7710    -2.2200 c3         1 PCX       0.143800
      6 N2          -1.2690    -5.0070    -1.5260 nu         1 PCX      -0.480200
      7 C6          -1.2560    -6.2790    -2.0600 c2         1 PCX       0.266100
      8 N3          -0.9530    -6.3920    -3.3940 nz         1 PCX       0.187400
      9 N4          -1.5210    -7.3260    -1.3240 n2         1 PCX      -0.658100
     10 C3          -2.3650     0.0930    -0.4740 c          1 PCX       0.960600
     11 O1          -3.2170     0.8080    -1.2560 o          1 PCX      -0.872800
     12 O2          -2.7060    -0.4020     0.5920 o          1 PCX      -0.872800
     13 C8           1.3360     0.0000     0.0000 c          1 PCX       0.627500
     14 C9           1.3340     0.0000     1.5390 cy         1 PCX      -0.171400
     15 O4           2.1750     0.0000    -0.8710 o          1 PCX      -0.691500
     16 C7          -0.2030    -0.0020     1.4170 cy         1 PCX       0.075000
     17 H1          -0.8140     0.8810    -1.6950 h1         1 PCX       0.058700
     18 H2C1         0.1840    -1.2620    -2.3690 hc         1 PCX       0.017200
     19 H2C2        -1.5130    -1.1460    -2.8150 hc         1 PCX       0.017200
     20 H4C1        -2.1040    -2.5490    -0.8540 hc         1 PCX       0.045700
     21 H4C2        -0.3910    -2.7010    -0.4690 hc         1 PCX       0.045700
     22 H5C1         0.0010    -3.8070    -2.6360 h1         1 PCX       0.010700
     23 H5C2        -1.7140    -3.6510    -3.0250 h1         1 PCX       0.010700
     24 H2          -1.4900    -4.9340    -0.5520 hn         1 PCX       0.335800
     25 H3N1        -1.6240    -5.8820    -3.9330 hn         1 PCX       0.222467
     26 H3N2        -0.9750    -7.3560    -3.6600 hn         1 PCX       0.222467
     27 H9C1         1.7290    -0.9130     1.9660 hc         1 PCX       0.036700
     28 H9C2         1.7280     0.9140     1.9660 hc         1 PCX       0.036700
     29 H7C1        -0.6590     0.9100     1.7820 h1         1 PCX       0.040200
     30 H7C2        -0.6570    -0.9150     1.7810 h1         1 PCX       0.040200
     31 HN1         -1.7390    -7.2140    -0.3530 hn         1 PCX       0.379400
     32 H33         -0.0380    -6.0210    -3.5610 hn         1 PCX       0.222467
@<TRIPOS>BOND
     1     1     2 1   
     2     1    13 1   
     3     1    16 1   
     4     2     3 1   
     5     2    10 1   
     6     2    17 1   
     7     3     4 1   
     8     3    18 1   
     9     3    19 1   
    10     4     5 1   
    11     4    20 1   
    12     4    21 1   
    13     5     6 1   
    14     5    22 1   
    15     5    23 1   
    16     6     7 1   
    17     6    24 1   
    18     7     8 1   
    19     7     9 2   
    20     8    25 1   
    21     8    26 1   
    22     8    32 1   
    23     9    31 1   
    24    10    11 1   
    25    10    12 1   
    26    13    14 1   
    27    13    15 2   
    28    14    16 1   
    29    14    27 1   
    30    14    28 1   
    31    16    29 1   
    32    16    30 1   
@<TRIPOS>SUBSTRUCTURE
     1 PCX         1 TEMP              0 ****  ****    0 ROOT
