@<TRIPOS>MOLECULE
molecule
   79    81     1     0     0
SMALL
bcc


@<TRIPOS>ATOM
      1 C1           0.0000     0.0000     0.0000 c          1 PCY       0.765100
      2 N2           1.3480     0.0000     0.0000 ns         1 PCY      -0.605900
      3 C3           2.0810     0.0000     1.2680 c3         1 PCY       0.136400
      4 N4          -0.6750     0.1190    -1.1610 n          1 PCY      -0.489800
      5 O5          -0.6080    -0.1110     1.0480 o          1 PCY      -0.692100
      6 C6           1.6670     1.2080     2.1120 c3         1 PCY       0.139100
      7 C7           3.6000     0.0380     1.0010 c3         1 PCY       0.143800
      8 C8           1.8010    -1.3020     2.0390 c3         1 PCY       0.067500
      9 C9          -2.1390     0.1190    -1.1600 c3         1 PCY       0.095800
     10 C10          0.0570     0.2460    -2.4240 c3         1 PCY       0.095800
     11 C11          0.3210     0.9250     2.7830 c3         1 PCY      -0.120100
     12 O12          1.5470     2.3570     1.2720 oh         1 PCY      -0.606800
     13 C13          3.8850     0.6220    -0.3840 c3         1 PCY      -0.136100
     14 O14          4.2660     0.7980     2.0100 oh         1 PCY      -0.594800
     15 C15          4.0330    -1.4470     1.0620 c3         1 PCY       0.126800
     16 N16          0.8830    -2.1540     1.2710 nz         1 PCY      -0.810600
     17 C17          3.1600    -2.0120     2.2120 c3         1 PCY       0.237500
     18 C18          5.5200    -1.5650     1.4010 c3         1 PCY       0.127400
     19 O19          3.7380    -2.1120    -0.1680 oh         1 PCY      -0.619800
     20 N20          3.7490    -1.6790     3.5120 nu         1 PCY      -0.813600
     21 O21          5.8960    -2.9670     1.4510 os         1 PCY      -0.435900
     22 C22          3.4110    -2.4270     4.6430 ca         1 PCY       0.168600
     23 C23          7.1820    -3.2460     1.7410 c          1 PCY       0.672700
     24 C24          3.9690    -2.1120     5.8720 ca         1 PCY      -0.131000
     25 C25          2.5130    -3.4810     4.5370 ca         1 PCY      -0.198000
     26 O26          7.9690    -2.3420     1.9450 o          1 PCY      -0.518000
     27 C27          7.6360    -4.6460     1.8080 ca         1 PCY      -0.153600
     28 C28          3.6280    -2.8640     7.0010 ca         1 PCY      -0.121600
     29 C29          2.1740    -4.2250     5.6520 ca         1 PCY      -0.092000
     30 C30          7.5810    -5.3450     3.0170 ca         1 PCY      -0.011300
     31 C31          8.1190    -5.2880     0.6590 ca         1 PCY       0.169100
     32 C32          4.2150    -2.5360     8.3110 c          1 PCY       0.569700
     33 C33          2.7280    -3.9260     6.8810 ca         1 PCY      -0.127000
     34 C34          7.0570    -4.6670     4.2580 c3         1 PCY      -0.060800
     35 C35          8.0070    -6.6540     3.0740 ca         1 PCY      -0.156000
     36 O36          8.1720    -4.6220    -0.5210 oh         1 PCY      -0.511100
     37 C37          8.5430    -6.6060     0.7350 ca         1 PCY      -0.209000
     38 C38          3.8450    -3.3480     9.5260 c3         1 PCY      -0.189100
     39 O39          4.9960    -1.6150     8.4130 o          1 PCY      -0.511100
     40 C40          8.4890    -7.2820     1.9380 ca         1 PCY      -0.063000
     41 H2           1.8480     0.0110    -0.8670 hn         1 PCY       0.347500
     42 H6           2.4170     1.3930     2.8720 h1         1 PCY       0.073700
     43 H8           1.3780    -1.0730     3.0090 hx         1 PCY       0.148700
     44 H91         -2.5000    -0.8600    -0.8670 h1         1 PCY       0.053200
     45 H92         -2.5010     0.3540    -2.1540 h1         1 PCY       0.053200
     46 H93         -2.5000     0.8620    -0.4590 h1         1 PCY       0.053200
     47 H101        -0.6470     0.3310    -3.2420 h1         1 PCY       0.053200
     48 H102         0.6790    -0.6290    -2.5710 h1         1 PCY       0.053200
     49 H103         0.6820     1.1310    -2.3920 h1         1 PCY       0.053200
     50 H111         0.1000    -0.1340     2.7160 hc         1 PCY       0.055700
     51 H112        -0.4570     1.4880     2.2820 hc         1 PCY       0.055700
     52 H113         0.3670     1.2190     3.8240 hc         1 PCY       0.055700
     53 H12          1.5660     3.1370     1.8020 ho         1 PCY       0.426000
     54 H131         4.9430     0.8370    -0.4740 hc         1 PCY       0.069367
     55 H132         3.5960    -0.0940    -1.1440 hc         1 PCY       0.069367
     56 H133         3.3190     1.5360    -0.5140 hc         1 PCY       0.069367
     57 H14          4.7620     1.4910     1.6060 ho         1 PCY       0.440000
     58 H161         1.0630    -3.1150     1.4840 hn         1 PCY       0.458467
     59 H162         1.0220    -1.9970     0.2920 hn         1 PCY       0.458467
     60 H17          3.0420    -3.0830     2.1050 h1         1 PCY       0.087700
     61 H181         6.1040    -1.0620     0.6410 h1         1 PCY       0.075700
     62 H182         5.7080    -1.1060     2.3640 h1         1 PCY       0.075700
     63 H19          4.5390    -2.4240    -0.5570 ho         1 PCY       0.453000
     64 H20          4.3620    -0.8920     3.5970 hn         1 PCY       0.472800
     65 H24          4.5970    -1.2350     5.9740 ha         1 PCY       0.163000
     66 H25          2.0740    -3.7210     3.5760 ha         1 PCY       0.097000
     67 H29          1.4750    -5.0470     5.5610 ha         1 PCY       0.140000
     68 H33          2.4610    -4.5110     7.7520 ha         1 PCY       0.148000
     69 H341         5.9750    -4.6230     4.2150 hc         1 PCY       0.055033
     70 H342         7.4570    -3.6620     4.3170 hc         1 PCY       0.055033
     71 H343         7.3610    -5.2290     5.1320 hc         1 PCY       0.055033
     72 H35          7.9670    -7.1940     4.0120 ha         1 PCY       0.146000
     73 H36          8.9400    -4.8890    -0.9980 ho         1 PCY       0.438000
     74 H37          8.9200    -7.1050    -0.1500 ha         1 PCY       0.146000
     75 H381         4.1220    -4.3830     9.3660 hc         1 PCY       0.067700
     76 H382         2.7770    -3.2810     9.6940 hc         1 PCY       0.067700
     77 H383         4.3710    -2.9630    10.3910 hc         1 PCY       0.067700
     78 H40          8.8220    -8.3110     1.9920 ha         1 PCY       0.145000
     79 H163        -0.0620    -1.9270     1.5100 hn         1 PCY       0.458467
@<TRIPOS>BOND
     1     1     2 1
     2     1     4 1
     3     1     5 2
     4     2     3 1
     5     2    41 1
     6     3     6 1
     7     3     7 1
     8     3     8 1
     9     4     9 1
    10     4    10 1
    11     6    11 1
    12     6    12 1
    13     6    42 1
    14     7    13 1
    15     7    14 1
    16     7    15 1
    17     8    16 1
    18     8    17 1
    19     8    43 1
    20     9    44 1
    21     9    45 1
    22     9    46 1
    23    10    47 1
    24    10    48 1
    25    10    49 1
    26    11    50 1
    27    11    51 1
    28    11    52 1
    29    12    53 1
    30    13    54 1
    31    13    55 1
    32    13    56 1
    33    14    57 1
    34    15    17 1
    35    15    18 1
    36    15    19 1
    37    16    58 1
    38    16    59 1
    39    17    20 1
    40    17    60 1
    41    18    21 1
    42    18    61 1
    43    18    62 1
    44    19    63 1
    45    20    22 1
    46    20    64 1
    47    21    23 1
    48    22    24 ar
    49    22    25 ar
    50    23    26 2
    51    23    27 1
    52    24    28 ar
    53    24    65 1
    54    25    29 ar
    55    25    66 1
    56    27    30 ar
    57    27    31 ar
    58    28    32 1
    59    28    33 ar
    60    29    33 ar
    61    29    67 1
    62    30    34 1
    63    30    35 ar
    64    31    36 1
    65    31    37 ar
    66    32    38 1
    67    32    39 2
    68    33    68 1
    69    34    69 1
    70    34    70 1
    71    34    71 1
    72    35    40 ar
    73    35    72 1
    74    36    73 1
    75    37    40 ar
    76    37    74 1
    77    38    75 1
    78    38    76 1
    79    38    77 1
    80    40    78 1
    81    79    16 1
@<TRIPOS>SUBSTRUCTURE
     1 PCY         1 TEMP              0 ****  ****    0 ROOT
