@<TRIPOS>MOLECULE
molecule
   40    41     1     0     0
SMALL
bcc


@<TRIPOS>ATOM
      1 O1           0.0000     0.0000     0.0000 o          1 PCZ      -0.529100
      2 C1           1.2080     0.0000     0.0000 c          1 PCZ       0.555900
      3 C2           1.9610     0.0000     1.3050 c3         1 PCZ       0.031700
      4 C3           2.8420    -1.2490     1.3860 c3         1 PCZ       0.252600
      5 C5           5.6540    -2.1980     2.0170 ce         1 PCZ      -0.271800
      6 C51          6.9190    -2.3600     2.3930 c2         1 PCZ      -0.157000
      7 C52          5.2300    -2.5150     0.5960 c3         1 PCZ       0.087900
      8 C6           4.6510    -1.7120     2.9740 ce         1 PCZ       0.472600
      9 C61          5.0460    -1.6890     4.4070 c          1 PCZ       0.803300
     10 O62          6.1010    -2.1790     4.7530 o          1 PCZ      -0.807300
     11 O63          4.2330    -1.1270     5.3200 o          1 PCZ      -0.807300
     12 N7           3.4750    -1.3070     2.6940 n2         1 PCZ      -0.585900
     13 N8           1.0090    -0.0000     2.4180 ns         1 PCZ      -0.529900
     14 C9           0.4920     1.1610     2.8650 c          1 PCZ       0.567800
     15 O91          0.7490     2.2010     2.2910 o          1 PCZ      -0.610100
     16 C10         -0.3880     1.1720     4.0570 ce         1 PCZ       0.330300
     17 N11         -0.7960     2.3030     4.5550 n2         1 PCZ      -0.421200
     18 O12         -0.4970     3.5190     3.8920 os         1 PCZ      -0.144300
     19 C13         -1.0060     4.6810     4.5490 c3         1 PCZ       0.132700
     20 C14         -0.8020    -0.1030     4.6820 cc         1 PCZ       0.374000
     21 C15         -1.6990    -0.1580     5.6850 cd         1 PCZ      -0.141400
     22 S16         -1.9160    -1.8460     6.1430 ss         1 PCZ      -0.322300
     23 C17         -0.7530    -2.3310     4.9120 cd         1 PCZ       0.764300
     24 N18         -0.3190    -1.2820     4.2870 nc         1 PCZ      -0.702000
     25 N19         -0.3660    -3.6350     4.6490 nv         1 PCZ      -1.007500
     26 S1           4.0990    -1.1820     0.0770 ss         1 PCZ      -0.467200
     27 H2           2.5830     0.8850     1.3630 h1         1 PCZ       0.115700
     28 H3           2.2310    -2.1320     1.2470 h2         1 PCZ       0.065700
     29 H511         7.2150    -2.1310     3.4100 ha         1 PCZ       0.140500
     30 H512         7.6540    -2.7190     1.6830 ha         1 PCZ       0.140500
     31 H521         6.0980    -2.5360    -0.0520 h1         1 PCZ       0.061200
     32 H522         4.7150    -3.4680     0.5670 h1         1 PCZ       0.061200
     33 H8           0.7240    -0.8660     2.8320 hn         1 PCZ       0.365500
     34 H131        -2.0880     4.6280     4.5890 h1         1 PCZ       0.033033
     35 H132        -0.7080     5.5660     4.0000 h1         1 PCZ       0.033033
     36 H133        -0.6090     4.7300     5.5550 h1         1 PCZ       0.033033
     37 H15         -2.2010     0.6910     6.1340 h4         1 PCZ       0.190000
     38 H191        -0.0230    -4.2140     5.3900 hn         1 PCZ       0.447800
     39 H192        -0.4720    -4.0130     3.7290 hn         1 PCZ       0.447800
     40 H1           1.7490     0.0690    -0.9360 h4         1 PCZ       0.001200
@<TRIPOS>BOND
     1     1     2 2
     2     2     3 1
     3     2    40 1
     4     3     4 1
     5     3    13 1
     6     3    27 1
     7     4    12 1
     8     4    26 1
     9     4    28 1
    10     5     6 2
    11     5     7 1
    12     5     8 1
    13     6    29 1
    14     6    30 1
    15     7    26 1
    16     7    31 1
    17     7    32 1
    18     8     9 1
    19     8    12 2
    20     9    10 1
    21     9    11 1
    22    13    14 1
    23    13    33 1
    24    14    15 2
    25    14    16 1
    26    16    17 2
    27    16    20 1
    28    17    18 1
    29    18    19 1
    30    19    34 1
    31    19    35 1
    32    19    36 1
    33    20    21 2
    34    20    24 1
    35    21    22 1
    36    21    37 1
    37    22    23 1
    38    23    24 2
    39    23    25 1
    40    25    38 1
    41    25    39 1
@<TRIPOS>SUBSTRUCTURE
     1 PCZ         1 TEMP              0 ****  ****    0 ROOT
