@<TRIPOS>MOLECULE
molecule
   79    81     1     0     0
SMALL
bcc


@<TRIPOS>ATOM
      1 C1           0.0000     0.0000     0.0000 c3         1 PD1      -0.093100
      2 C2           1.5300     0.0000     0.0000 c3         1 PD1       0.128300
      3 C3           1.7730    -1.2210     3.4930 c3         1 PD1      -0.093100
      4 C4           1.6240    -1.2870     1.9720 c3         1 PD1       0.128300
      5 C5           3.4850     0.0010     1.3140 c3         1 PD1       0.133800
      6 C6           3.9790     1.4000     0.9430 c3         1 PD1      -0.075400
      7 C7           5.4990     1.3790     0.7740 c3         1 PD1      -0.104400
      8 C8           5.9920     2.7780     0.4020 c3         1 PD1       0.245800
      9 C9           8.1230     3.9140    -0.0980 ca         1 PD1       0.963900
     10 C10          8.0110     6.1670    -0.5900 ca         1 PD1       0.541200
     11 C11          9.4070     6.1760    -0.7530 ca         1 PD1      -0.435600
     12 C12         10.1220     4.9650    -0.5620 ca         1 PD1       0.790300
     13 C13         10.1060     7.3450    -1.0950 ca         1 PD1       0.007000
     14 C14         11.4830     7.2610    -1.2330 cp         1 PD1      -0.242300
     15 C15         12.1250     6.0230    -1.0290 ca         1 PD1       0.637200
     16 C16         12.2720     8.4630    -1.5940 cp         1 PD1       0.029000
     17 C17         12.2540     9.5840    -0.7680 ca         1 PD1      -0.193500
     18 C18         12.9940    10.7050    -1.1070 ca         1 PD1       0.156600
     19 C19         13.7520    10.7130    -2.2690 ca         1 PD1      -0.321000
     20 C20         13.7720     9.5980    -3.0940 ca         1 PD1       0.156600
     21 C21         13.0390     8.4710    -2.7570 ca         1 PD1      -0.193500
     22 C22         13.8230    12.7750    -0.9120 c3         1 PD1       0.105700
     23 C23         15.1510    10.8870    -4.2960 c3         1 PD1       0.105700
     24 C24         14.1340     4.7670    -0.9760 c          1 PD1       0.765100
     25 C25         16.1570     3.4120    -0.9030 c3         1 PD1       0.141400
     26 C26         17.6600     3.5980    -1.1160 c3         1 PD1      -0.102100
     27 C27         15.9010     2.9240     0.5240 c3         1 PD1      -0.102100
     28 C28         15.6250     2.3790    -1.8980 c3         1 PD1      -0.102100
     29 N1           2.0190     0.0000     1.3840 n3         1 PD1      -0.670600
     30 N2           7.4470     2.7570     0.2410 nu         1 PD1      -0.891900
     31 N3           7.4230     5.0330    -0.2690 nb         1 PD1      -0.801000
     32 N4           9.4340     3.8660    -0.2310 nb         1 PD1      -0.787000
     33 N5          11.4470     4.9390    -0.7080 nb         1 PD1      -0.685000
     34 N6          13.5030     5.9430    -1.1690 ns         1 PD1      -0.558400
     35 N7          15.4720     4.6900    -1.1120 ns         1 PD1      -0.598900
     36 O1          12.9760    11.8000    -0.3020 os         1 PD1      -0.291900
     37 O2          14.5170     9.6090    -4.2310 os         1 PD1      -0.291900
     38 O3          13.4940     3.7760    -0.6810 o          1 PD1      -0.574100
     39 H11         -0.3610     0.5080    -0.8860 hc         1 PD1       0.039367
     40 H12         -0.3610     0.5140     0.8830 hc         1 PD1       0.039367
     41 H13A        -0.3610    -1.0210     0.0030 hc         1 PD1       0.039367
     42 H21A         1.8910     0.8840    -0.5110 h1         1 PD1       0.036700
     43 H22          1.8910    -0.8850    -0.5110 h1         1 PD1       0.036700
     44 H31          2.7480    -1.5980     3.7770 hc         1 PD1       0.039367
     45 H32          1.0020    -1.8240     3.9580 hc         1 PD1       0.039367
     46 H33          1.6730    -0.1930     3.8210 hc         1 PD1       0.039367
     47 H41          0.5920    -1.4980     1.7190 h1         1 PD1       0.036700
     48 H42          2.2590    -2.0730     1.5810 h1         1 PD1       0.036700
     49 H51          3.8110    -0.7080     0.5620 h1         1 PD1       0.037700
     50 H52          3.8930    -0.2820     2.2770 h1         1 PD1       0.037700
     51 H61          3.7130     2.0970     1.7290 hc         1 PD1       0.052700
     52 H62          3.5170     1.7110     0.0140 hc         1 PD1       0.052700
     53 H71          5.7650     0.6820    -0.0120 hc         1 PD1       0.047200
     54 H72          5.9610     1.0680     1.7030 hc         1 PD1       0.047200
     55 H81          5.5310     3.0880    -0.5280 h1         1 PD1       0.051700
     56 H82          5.7260     3.4750     1.1870 h1         1 PD1       0.051700
     57 H10          7.4310     7.0720    -0.7270 h4         1 PD1       0.028100
     58 H13          9.5860     8.2830    -1.2450 ha         1 PD1       0.145000
     59 H17         11.6620     9.5790     0.1390 ha         1 PD1       0.154000
     60 H19         14.3280    11.5910    -2.5330 ha         1 PD1       0.156000
     61 H21         13.0560     7.6010    -3.4030 ha         1 PD1       0.154000
     62 H221        13.4450    13.0170    -1.8970 h1         1 PD1       0.044533
     63 H222        14.8270    12.3770    -0.9980 h1         1 PD1       0.044533
     64 H223        13.8410    13.6700    -0.3020 h1         1 PD1       0.044533
     65 H231        15.7590    10.9430    -5.1910 h1         1 PD1       0.044533
     66 H232        14.3970    11.6640    -4.3240 h1         1 PD1       0.044533
     67 H233        15.7790    11.0240    -3.4240 h1         1 PD1       0.044533
     68 H261        17.8410     3.9440    -2.1270 hc         1 PD1       0.045700
     69 H262        18.1670     2.6530    -0.9620 hc         1 PD1       0.045700
     70 H263        18.0370     4.3290    -0.4110 hc         1 PD1       0.045700
     71 H271        16.6650     2.2080     0.8040 hc         1 PD1       0.045700
     72 H272        15.9290     3.7660     1.2050 hc         1 PD1       0.045700
     73 H273        14.9280     2.4510     0.5760 hc         1 PD1       0.045700
     74 H281        14.6870     1.9780    -1.5340 hc         1 PD1       0.045700
     75 H282        16.3440     1.5760    -2.0050 hc         1 PD1       0.045700
     76 H283        15.4660     2.8530    -2.8590 hc         1 PD1       0.045700
     77 HN2          7.9530     1.9040     0.3750 hn         1 PD1       0.462800
     78 HN6         14.0310     6.7610    -1.4000 hn         1 PD1       0.334500
     79 HN7         16.0020     5.5130    -1.3190 hn         1 PD1       0.303500
@<TRIPOS>BOND
     1     1     2 1
     2     1    39 1
     3     1    40 1
     4     1    41 1
     5     2    29 1
     6     2    42 1
     7     2    43 1
     8     3     4 1
     9     3    44 1
    10     3    45 1
    11     3    46 1
    12     4    29 1
    13     4    47 1
    14     4    48 1
    15     5     6 1
    16     5    29 1
    17     5    49 1
    18     5    50 1
    19     6     7 1
    20     6    51 1
    21     6    52 1
    22     7     8 1
    23     7    53 1
    24     7    54 1
    25     8    30 1
    26     8    55 1
    27     8    56 1
    28     9    30 1
    29     9    31 ar
    30     9    32 ar
    31    10    11 ar
    32    10    31 ar
    33    10    57 1
    34    11    12 ar
    35    11    13 ar
    36    12    32 ar
    37    12    33 ar
    38    13    14 ar
    39    13    58 1
    40    14    15 ar
    41    14    16 1
    42    15    33 ar
    43    15    34 1
    44    16    17 ar
    45    16    21 ar
    46    17    18 ar
    47    17    59 1
    48    18    19 ar
    49    18    36 1
    50    19    20 ar
    51    19    60 1
    52    20    21 ar
    53    20    37 1
    54    21    61 1
    55    22    36 1
    56    22    62 1
    57    22    63 1
    58    22    64 1
    59    23    37 1
    60    23    65 1
    61    23    66 1
    62    23    67 1
    63    24    34 1
    64    24    35 1
    65    24    38 2
    66    25    26 1
    67    25    27 1
    68    25    28 1
    69    25    35 1
    70    26    68 1
    71    26    69 1
    72    26    70 1
    73    27    71 1
    74    27    72 1
    75    27    73 1
    76    28    74 1
    77    28    75 1
    78    28    76 1
    79    30    77 1
    80    34    78 1
    81    35    79 1
@<TRIPOS>SUBSTRUCTURE
     1 PD1         1 TEMP              0 ****  ****    0 ROOT
