@<TRIPOS>MOLECULE
molecule
   15    15     1     0     0
SMALL
bcc


@<TRIPOS>ATOM
      1 O42          0.0000     0.0000     0.0000 o          1 PD2      -0.859800
      2 C41          1.2140     0.0000     0.0000 c          1 PD2       0.891200
      3 O41          1.8870     0.0000     1.1660 o          1 PD2      -0.859800
      4 C4           1.9540    -0.0010    -1.2820 ca         1 PD2      -0.114600
      5 C5           3.3530    -0.0010    -1.3050 ca         1 PD2      -0.244300
      6 C6           4.0090    -0.0010    -2.5240 ca         1 PD2       0.339200
      7 C3           1.2740    -0.0070    -2.5030 ca         1 PD2      -0.195300
      8 C2           2.0120    -0.0010    -3.6850 ca         1 PD2       0.362800
      9 N1           3.3390    -0.0010    -3.6540 nb         1 PD2      -0.674000
     10 C21          1.3090    -0.0000    -4.9880 c          1 PD2       0.791100
     11 O21          0.0960    -0.0000    -5.0230 o          1 PD2      -0.850300
     12 O22          2.0160    -0.0000    -6.1340 o          1 PD2      -0.850300
     13 H5           3.9160    -0.0010    -0.3790 ha         1 PD2       0.129000
     14 H6           5.0920    -0.0010    -2.5460 h4         1 PD2      -0.029900
     15 H3           0.1910    -0.0070    -2.5310 ha         1 PD2       0.165000
@<TRIPOS>BOND
     1     1     2 1
     2     2     3 1
     3     2     4 1
     4     4     5 ar
     5     4     7 ar
     6     5     6 ar
     7     5    13 1
     8     6     9 ar
     9     6    14 1
    10     7     8 ar
    11     7    15 1
    12     8     9 ar
    13     8    10 1
    14    10    11 1
    15    10    12 1
@<TRIPOS>SUBSTRUCTURE
     1 PD2         1 TEMP              0 ****  ****    0 ROOT
