@<TRIPOS>MOLECULE
PD2
   15    15     1     0     0
SMALL
bcc


@<TRIPOS>ATOM
      1 O42         0.0320   -0.7250    0.0170 o         1 PD2     -0.856300
      2 C41         1.2630   -0.4340    0.0260 c         1 PD2      0.904200
      3 O41         1.9370   -0.3770    1.1020 o         1 PD2     -0.856300
      4 C4          1.9700   -0.1410   -1.2810 ca        1 PD2     -0.109600
      5 C5          3.3350    0.1850   -1.2730 ca        1 PD2     -0.254300
      6 C6          3.9670    0.4520   -2.4920 ca        1 PD2      0.329200
      7 C3          1.3170   -0.1790   -2.5150 ca        1 PD2     -0.206300
      8 C2          2.0350    0.1050   -3.7040 ca        1 PD2      0.361800
      9 N1          3.3500    0.4190   -3.6930 nb        1 PD2     -0.693000
     10 C21         1.2970    0.0570   -5.0500 c         1 PD2      0.824100
     11 O21         0.7480    1.1160   -5.4640 o         1 PD2     -0.845300
     12 O22         1.2640   -1.0440   -5.6690 o         1 PD2     -0.845300
     13 H5          3.8740    0.2230   -0.3180 ha        1 PD2      0.131000
     14 H6          5.0390    0.7110   -2.5220 h4        1 PD2     -0.037900
     15 H3          0.2480   -0.4300   -2.5610 ha        1 PD2      0.152000
@<TRIPOS>BOND
     1    1    2 1   
     2    2    3 1   
     3    2    4 1   
     4    4    5 ar  
     5    4    7 ar  
     6    5    6 ar  
     7    5   13 1   
     8    6    9 ar  
     9    6   14 1   
    10    7    8 ar  
    11    7   15 1   
    12    8    9 ar  
    13    8   10 1   
    14   10   11 1   
    15   10   12 1   
@<TRIPOS>SUBSTRUCTURE
     1 PD2         1 TEMP              0 ****  ****    0 ROOT
