@<TRIPOS>MOLECULE
molecule
   60    64     1     0     0
SMALL
bcc


@<TRIPOS>ATOM
      1 C4           0.0000     0.0000     0.0000 ca         1 PD3       0.519800
      2 C5           1.4090     0.0000     0.0000 ca         1 PD3      -0.513500
      3 C6           2.0760     0.0000     1.2400 ca         1 PD3       0.786200
      4 N1           1.3460     0.0010     2.3500 nb         1 PD3      -0.817000
      5 N3          -0.6420    -0.0010     1.1670 nb         1 PD3      -0.789000
      6 CAQ         -2.0000    -1.1990    -2.7520 c3         1 PD3      -0.096900
      7 CAO         -2.9350    -0.6890    -3.8630 c3         1 PD3      -0.083900
      8 CAP         -3.2410     0.7890    -3.5380 c3         1 PD3      -0.083900
      9 CAR         -2.0490     1.2390    -2.6580 c3         1 PD3      -0.096900
     10 CBH         -1.7710    -0.0140    -1.7910 c3         1 PD3       0.085000
     11 NBI         -0.3890    -0.0070    -1.3060 na         1 PD3      -0.015800
     12 NAV          0.7610    -0.0030    -2.1060 nc         1 PD3      -0.504100
     13 C2           0.0260     0.0000     2.3000 ca         1 PD3       0.741900
     14 NAA          3.4560    -0.0010     1.3010 nv         1 PD3      -1.048500
     15 CBE          1.8220    -0.0010    -1.3500 cd         1 PD3       0.402900
     16 CAS          3.2490    -0.0000    -1.8340 c3         1 PD3      -0.029400
     17 CAZ          3.6820    -1.4150    -2.1230 ca         1 PD3      -0.066300
     18 CAM          3.4970    -1.9480    -3.3840 ca         1 PD3      -0.150000
     19 CAH          4.2690    -2.1740    -1.1280 ca         1 PD3      -0.134000
     20 CAF          4.6670    -3.4720    -1.3900 ca         1 PD3      -0.113000
     21 CAI          4.4810    -4.0140    -2.6460 ca         1 PD3      -0.122000
     22 CBB          3.8960    -3.2520    -3.6490 ca         1 PD3       0.066600
     23 NAW          3.7050    -3.7980    -4.9230 ns         1 PD3      -0.483100
     24 CAY          3.3890    -5.1000    -5.0580 c          1 PD3       0.784100
     25 OAB          3.3530    -5.8220    -4.0800 o          1 PD3      -0.634100
     26 NAX          3.1130    -5.6050    -6.2770 ns         1 PD3      -0.489100
     27 CBC          2.6930    -6.9340    -6.4060 ca         1 PD3       0.068600
     28 CAN          1.7550    -7.2770    -7.3710 ca         1 PD3      -0.120000
     29 CAJ          3.2180    -7.9130    -5.5730 ca         1 PD3      -0.098000
     30 CAG          2.8010    -9.2240    -5.7040 ca         1 PD3      -0.116000
     31 CAK          1.8640    -9.5610    -6.6620 ca         1 PD3      -0.099000
     32 CBD          1.3430    -8.5880    -7.4960 ca         1 PD3      -0.163300
     33 CBJ          0.3250    -8.9620    -8.5430 c3         1 PD3       0.674200
     34 FAD          0.9800    -9.2990    -9.7320 f          1 PD3      -0.223967
     35 FAE         -0.4240   -10.0560    -8.0960 f          1 PD3      -0.223967
     36 FAC         -0.5270    -7.8750    -8.7720 f          1 PD3      -0.223967
     37 HAQA        -1.0570    -1.5160    -3.1790 hc         1 PD3       0.060450
     38 HAO         -3.8520    -1.2640    -3.8680 hc         1 PD3       0.046700
     39 HAOA        -2.4400    -0.7600    -4.8240 hc         1 PD3       0.046700
     40 HAP         -4.1700     0.8690    -2.9850 hc         1 PD3       0.046700
     41 HAPA        -3.2820     1.3750    -4.4470 hc         1 PD3       0.046700
     42 HAR         -1.1890     1.4770    -3.2730 hc         1 PD3       0.060450
     43 HARA        -2.3300     2.0800    -2.0350 hc         1 PD3       0.060450
     44 HBH         -2.4690    -0.0610    -0.9630 h1         1 PD3       0.093700
     45 H2          -0.5290     0.0010     3.2310 h5         1 PD3       0.061100
     46 HNAA         3.9310    -0.6950     1.8420 hn         1 PD3       0.442800
     47 HNAB         3.9750     0.7380     0.8700 hn         1 PD3       0.442800
     48 HAS          3.3230     0.5920    -2.7380 hc         1 PD3       0.061700
     49 HASA         3.8890     0.4240    -1.0700 hc         1 PD3       0.061700
     50 HAM          3.0400    -1.3510    -4.1640 ha         1 PD3       0.135000
     51 HAH          4.4160    -1.7520    -0.1420 ha         1 PD3       0.133000
     52 HAF          5.1250    -4.0650    -0.6080 ha         1 PD3       0.135000
     53 HAI          4.7940    -5.0310    -2.8500 ha         1 PD3       0.166000
     54 HNAW         3.7080    -3.2000    -5.7260 hn         1 PD3       0.318500
     55 HNAX         3.1620    -5.0160    -7.0850 hn         1 PD3       0.321500
     56 HAN          1.3460    -6.5160    -8.0250 ha         1 PD3       0.145000
     57 HAJ          3.9530    -7.6490    -4.8220 ha         1 PD3       0.173000
     58 HAG          3.2080    -9.9880    -5.0530 ha         1 PD3       0.144000
     59 HAK          1.5390   -10.5890    -6.7620 ha         1 PD3       0.147000
     60 HAQ         -2.4690    -2.0190    -2.2230 hc         1 PD3       0.060450
@<TRIPOS>BOND
     1     2     1 ar
     2     1     5 ar
     3     1    11 1
     4     3     2 ar
     5    15     2 1
     6    14     3 1
     7     3     4 ar
     8     4    13 ar
     9    13     5 ar
    10    10     6 1
    11     6     7 1
    12     6    60 1
    13     6    37 1
    14     8     7 1
    15     7    38 1
    16     7    39 1
    17     9     8 1
    18     8    40 1
    19     8    41 1
    20     9    10 1
    21     9    42 1
    22     9    43 1
    23    11    10 1
    24    10    44 1
    25    12    11 1
    26    15    12 2
    27    13    45 1
    28    14    46 1
    29    14    47 1
    30    16    15 1
    31    17    16 1
    32    16    48 1
    33    16    49 1
    34    19    17 ar
    35    18    17 ar
    36    22    18 ar
    37    18    50 1
    38    20    19 ar
    39    19    51 1
    40    20    21 ar
    41    20    52 1
    42    21    22 ar
    43    21    53 1
    44    23    22 1
    45    23    24 1
    46    23    54 1
    47    26    24 1
    48    24    25 2
    49    26    27 1
    50    26    55 1
    51    29    27 ar
    52    27    28 ar
    53    28    32 ar
    54    28    56 1
    55    29    30 ar
    56    29    57 1
    57    30    31 ar
    58    30    58 1
    59    31    32 ar
    60    31    59 1
    61    32    33 1
    62    35    33 1
    63    33    34 1
    64    33    36 1
@<TRIPOS>SUBSTRUCTURE
     1 PD3         1 TEMP              0 ****  ****    0 ROOT
