@<TRIPOS>MOLECULE
PD4
   66    69     1     0     0
SMALL
bcc


@<TRIPOS>ATOM
      1 C            0.0000     0.0000     0.0000 cp         1 PD4       0.464800
      2 C1           1.3980     0.0000     0.0000 ca         1 PD4      -0.234300
      3 C2           2.0730     0.0000     1.1890 ca         1 PD4      -0.028000
      4 C3           1.3300     0.0000     2.3820 ca         1 PD4       0.003100
      5 C4          -0.0750     0.0010     2.3120 ca         1 PD4       0.293200
      6 N           -0.6850     0.0010     1.1360 nb         1 PD4      -0.600000
      7 N1           1.9640    -0.0000     3.5720 nc         1 PD4      -0.569100
      8 C5           1.2880     0.0010     4.6930 cd         1 PD4       0.423200
      9 C6          -0.1860     0.0020     4.6640 c          1 PD4       0.491200
     10 N2          -0.8210     0.0020     3.4730 n          1 PD4       0.013700
     11 O           -0.8210     0.0030     5.7020 o          1 PD4      -0.660500
     12 N3           1.9570    -0.0010     5.9040 nu         1 PD4      -0.407200
     13 C7           3.4220    -0.0020     5.9310 c3         1 PD4       0.146800
     14 C8           3.9050    -0.0030     7.3840 c3         1 PD4       0.142800
     15 N4           5.3740    -0.0040     7.4120 n3         1 PD4      -0.530600
     16 C9           5.8750     0.2340     8.7720 c3         1 PD4       0.106300
     17 C10          7.4060     0.2830     8.7450 c3         1 PD4       0.215400
     18 O1           7.9070    -0.9360     8.1890 os         1 PD4      -0.411600
     19 C11          7.4390    -1.1980     6.8630 c3         1 PD4       0.215400
     20 C12          5.9090    -1.2620     6.8710 c3         1 PD4       0.106300
     21 C13         -0.7280     0.0070    -1.2900 cp         1 PD4      -0.320800
     22 C14         -2.1280     0.0080    -1.3150 ca         1 PD4      -0.001000
     23 C15         -2.7620     0.0140    -2.5420 ca         1 PD4      -0.257300
     24 C16         -1.9970     0.0190    -3.7020 ca         1 PD4       0.630600
     25 N5          -0.6750     0.0180    -3.6440 nb         1 PD4      -0.666000
     26 C17         -0.0300     0.0170    -2.4960 ca         1 PD4       0.457200
     27 C18         -2.2860     0.0040     3.4150 c3         1 PD4       0.018000
     28 O2          -2.6140     0.0250    -4.9100 os         1 PD4      -0.430100
     29 C19         -2.7960    -1.4390     3.3940 c3         1 PD4       0.193400
     30 O3          -2.4680    -2.0780     4.6300 os         1 PD4      -0.404600
     31 C20         -2.9040    -3.4370     4.7150 c3         1 PD4       0.210400
     32 C21         -2.5000    -4.0170     6.0720 c3         1 PD4      -0.033400
     33 C22         -2.9660    -5.4710     6.1620 c3         1 PD4       0.009900
     34 C23         -1.7750     0.0300    -6.0670 c3         1 PD4       0.255700
     35 H1           1.9430    -0.0010    -0.9360 ha         1 PD4       0.123000
     36 H2           3.1560     0.0000     1.2100 ha         1 PD4       0.122000
     37 HN3          1.4410     0.0180     6.7610 hn         1 PD4       0.309800
     38 H7           3.7920    -0.8860     5.4270 h1         1 PD4       0.036200
     39 H7A          3.7940     0.8830     5.4290 h1         1 PD4       0.036200
     40 H8           3.5340    -0.8880     7.8870 h1         1 PD4       0.013200
     41 H8A          3.5350     0.8810     7.8890 h1         1 PD4       0.013200
     42 H9           5.4910     1.1780     9.1380 h1         1 PD4       0.019450
     43 H9A          5.5520    -0.5710     9.4220 h1         1 PD4       0.019450
     44 H10          7.7290     1.1170     8.1360 h1         1 PD4       0.013700
     45 H10A         7.7800     0.3980     9.7550 h1         1 PD4       0.013700
     46 H11          7.8380    -2.1450     6.5210 h1         1 PD4       0.013700
     47 H11A         7.7630    -0.4030     6.2030 h1         1 PD4       0.013700
     48 H12          5.5860    -2.0880     7.4930 h1         1 PD4       0.019450
     49 H12A         5.5490    -1.4020     5.8590 h1         1 PD4       0.019450
     50 H14         -2.7000     0.0040    -0.3940 ha         1 PD4       0.124000
     51 H15         -3.8440     0.0150    -2.5990 ha         1 PD4       0.126000
     52 H17          1.0530     0.0170    -2.4900 h4         1 PD4      -0.013900
     53 H18         -2.6110     0.5150     2.5170 h1         1 PD4       0.054200
     54 H18A        -2.6810     0.5150     4.2850 h1         1 PD4       0.054200
     55 H19         -2.3310    -1.9750     2.5760 h1         1 PD4       0.000200
     56 H19A        -3.8710    -1.4400     3.2620 h1         1 PD4       0.000200
     57 H20         -2.4410    -4.0140     3.9230 h1         1 PD4      -0.010800
     58 H20A        -3.9810    -3.4780     4.6100 h1         1 PD4      -0.010800
     59 H21         -1.4230    -3.9760     6.1760 hc         1 PD4       0.022700
     60 H21A        -2.9630    -3.4400     6.8630 hc         1 PD4       0.022700
     61 H22         -2.6840    -5.8820     7.1240 hc         1 PD4       0.000700
     62 H22A        -2.5020    -6.0490     5.3730 hc         1 PD4       0.000700
     63 H22B        -4.0430    -5.5130     6.0540 hc         1 PD4       0.000700
     64 H23         -2.3900     0.0350    -6.9590 h1         1 PD4       0.000367
     65 H23A        -1.1490     0.9140    -6.0560 h1         1 PD4       0.000367
     66 H23B        -1.1500    -0.8550    -6.0640 h1         1 PD4       0.000367
@<TRIPOS>BOND
     1     1     2 ar  
     2     1     6 ar  
     3     1    21 1   
     4     2     3 ar  
     5     2    35 1   
     6     3     4 ar  
     7     3    36 1   
     8     4     5 ar  
     9     4     7 1   
    10     5     6 ar  
    11     5    10 1   
    12     7     8 2   
    13     8     9 1   
    14     8    12 1   
    15     9    10 1   
    16     9    11 2   
    17    10    27 1   
    18    12    13 1   
    19    12    37 1   
    20    13    14 1   
    21    13    38 1   
    22    13    39 1   
    23    14    15 1   
    24    14    40 1   
    25    14    41 1   
    26    15    16 1   
    27    15    20 1   
    28    16    17 1   
    29    16    42 1   
    30    16    43 1   
    31    17    18 1   
    32    17    44 1   
    33    17    45 1   
    34    18    19 1   
    35    19    20 1   
    36    19    46 1   
    37    19    47 1   
    38    20    48 1   
    39    20    49 1   
    40    21    22 ar  
    41    21    26 ar  
    42    22    23 ar  
    43    22    50 1   
    44    23    24 ar  
    45    23    51 1   
    46    24    25 ar  
    47    24    28 1   
    48    25    26 ar  
    49    26    52 1   
    50    27    29 1   
    51    27    53 1   
    52    27    54 1   
    53    28    34 1   
    54    29    30 1   
    55    29    55 1   
    56    29    56 1   
    57    30    31 1   
    58    31    32 1   
    59    31    57 1   
    60    31    58 1   
    61    32    33 1   
    62    32    59 1   
    63    32    60 1   
    64    33    61 1   
    65    33    62 1   
    66    33    63 1   
    67    34    64 1   
    68    34    65 1   
    69    34    66 1   
@<TRIPOS>SUBSTRUCTURE
     1 PD4         1 TEMP              0 ****  ****    0 ROOT
