@<TRIPOS>MOLECULE
PD5
   53    56     1     0     0
SMALL
bcc


@<TRIPOS>ATOM
      1 C4           0.0000     0.0000     0.0000 ca         1 PD5       0.345800
      2 C5           1.4080     0.0000     0.0000 ca         1 PD5      -0.549500
      3 C6           2.0780     0.0000     1.2350 ca         1 PD5       0.614200
      4 N1           1.3510     0.0000     2.3480 nb         1 PD5      -0.737000
      5 N3          -0.6390     0.0000     1.1690 nb         1 PD5      -0.695000
      6 CAA         -2.0400     1.2600    -2.6090 c3         1 PD5      -0.011600
      7 CAB         -2.0410    -1.2380    -2.6180 c3         1 PD5      -0.011600
      8 NBF         -0.3960     0.0050    -1.3050 na         1 PD5       0.380200
      9 NAS          0.7320     0.0090    -2.1330 nc         1 PD5      -0.625100
     10 C2           0.0310     0.0010     2.3010 ca         1 PD5       0.705900
     11 NAC          3.4590    -0.0000     1.2910 nv         1 PD5      -0.549500
     12 CBB          1.8220     0.0010    -1.4020 cd         1 PD5       0.483500
     13 CAZ          3.2170     0.0020    -1.9050 ca         1 PD5      -0.114900
     14 CAO          4.1670    -0.8420    -1.3320 ca         1 PD5      -0.069000
     15 CAM          5.4630    -0.8400    -1.8010 ca         1 PD5      -0.120500
     16 CAN          3.5790     0.8420    -2.9570 ca         1 PD5      -0.069000
     17 CAL          4.8760     0.8410    -3.4240 ca         1 PD5      -0.120500
     18 CAX          5.8230     0.0030    -2.8470 ca         1 PD5      -0.070400
     19 NAT          7.1390     0.0040    -3.3210 ns         1 PD5      -0.048100
     20 CAV          8.1650    -0.1620    -2.4620 c          1 PD5       0.556100
     21 OAD          7.9530    -0.2200    -1.2660 o          1 PD5      -0.686100
     22 NAU          9.4240    -0.2630    -2.9300 ns         1 PD5      -0.047100
     23 CAY         10.4790    -0.5280    -2.0490 ca         1 PD5      -0.082400
     24 CAP         11.5300    -1.3420    -2.4460 ca         1 PD5      -0.080000
     25 CAJ         10.4780     0.0280    -0.7760 ca         1 PD5      -0.068000
     26 CAH         11.5190    -0.2330     0.0910 ca         1 PD5      -0.088000
     27 CAK         12.5630    -1.0490    -0.3060 ca         1 PD5      -0.056000
     28 CBA         12.5700    -1.6010    -1.5740 ca         1 PD5      -0.194300
     29 CBG         13.7120    -2.4850    -2.0060 c3         1 PD5       0.640200
     30 FAF         14.7100    -1.7030    -2.5940 f          1 PD5      -0.208300
     31 FAG         14.2360    -3.1470    -0.8890 f          1 PD5      -0.208300
     32 FAE         13.2490    -3.4250    -2.9320 f          1 PD5      -0.208300
     33 HAA         -3.0940     1.3240    -2.8530 hc         1 PD5       0.015200
     34 HAAA        -1.4600     1.2060    -3.5220 hc         1 PD5       0.015200
     35 HAAB        -1.7470     2.1380    -2.0460 hc         1 PD5       0.015200
     36 HBE         -2.4510     0.0040    -0.9140 h1         1 PD5       0.057700
     37 HAB         -1.4480    -1.1850    -3.5240 hc         1 PD5       0.015200
     38 HABA        -1.7590    -2.1180    -2.0530 hc         1 PD5       0.015200
     39 HABB        -3.0910    -1.2960    -2.8770 hc         1 PD5       0.015200
     40 H2          -0.5220     0.0010     3.2320 h5         1 PD5      -0.005900
     41 HNAC         3.9310    -0.5690     1.9650 hn         1 PD5       0.286300
     42 HNAA         3.9850     0.5120     0.6110 hn         1 PD5       0.286300
     43 HAO          3.8870    -1.4990    -0.5170 ha         1 PD5       0.117500
     44 HAM          6.2020    -1.4940    -1.3540 ha         1 PD5       0.124000
     45 HAN          2.8420     1.4960    -3.4070 ha         1 PD5       0.117500
     46 HAL          5.1590     1.4950    -4.2400 ha         1 PD5       0.124000
     47 HNAT         7.3230     0.2470    -4.2740 hn         1 PD5       0.163500
     48 HNAU         9.6000    -0.1930    -3.9130 hn         1 PD5       0.164500
     49 HAP         11.5360    -1.7740    -3.4400 ha         1 PD5       0.118000
     50 HAJ          9.6600     0.6680    -0.4640 ha         1 PD5       0.148000
     51 HAH         11.5180     0.1990     1.0850 ha         1 PD5       0.113000
     52 HAK         13.3800    -1.2530     0.3760 ha         1 PD5       0.118000
     53 CBE         -1.7850     0.0080    -1.7680 c3         1 PD5      -0.032000
@<TRIPOS>BOND
     1     1     2 ar  
     2     1     5 ar  
     3     1     8 1   
     4     2     3 ar  
     5     2    12 1   
     6     3     4 ar  
     7     3    11 1   
     8     4    10 ar  
     9     5    10 ar  
    10     6    33 1   
    11     6    34 1   
    12     6    35 1   
    13     6    53 1   
    14     7    37 1   
    15     7    38 1   
    16     7    39 1   
    17     7    53 1   
    18     8     9 1   
    19     8    53 1   
    20     9    12 2   
    21    10    40 1   
    22    11    41 1   
    23    11    42 1   
    24    12    13 1   
    25    13    14 ar  
    26    13    16 ar  
    27    14    15 ar  
    28    14    43 1   
    29    15    18 ar  
    30    15    44 1   
    31    16    17 ar  
    32    16    45 1   
    33    17    18 ar  
    34    17    46 1   
    35    18    19 1   
    36    19    20 1   
    37    19    47 1   
    38    20    21 2   
    39    20    22 1   
    40    22    23 1   
    41    22    48 1   
    42    23    24 ar  
    43    23    25 ar  
    44    24    28 ar  
    45    24    49 1   
    46    25    26 ar  
    47    25    50 1   
    48    26    27 ar  
    49    26    51 1   
    50    27    28 ar  
    51    27    52 1   
    52    28    29 1   
    53    29    30 1   
    54    29    31 1   
    55    29    32 1   
    56    36    53 1   
@<TRIPOS>SUBSTRUCTURE
     1 PD5         1 TEMP              0 ****  ****    0 ROOT
