@<TRIPOS>MOLECULE
molecule
   53    56     1     0     0
SMALL
bcc


@<TRIPOS>ATOM
      1 C4           0.0000     0.0000     0.0000 ca         1 PD5       0.531800
      2 C5           1.4080     0.0000     0.0000 ca         1 PD5      -0.533500
      3 C6           2.0780     0.0000     1.2350 ca         1 PD5       0.790200
      4 N1           1.3510     0.0000     2.3480 nb         1 PD5      -0.830000
      5 N3          -0.6390     0.0000     1.1690 nb         1 PD5      -0.805000
      6 CAA         -2.0400     1.2600    -2.6090 c3         1 PD5      -0.107100
      7 CAB         -2.0410    -1.2380    -2.6180 c3         1 PD5      -0.107100
      8 NBF         -0.3960     0.0050    -1.3050 na         1 PD5      -0.025800
      9 NAS          0.7320     0.0090    -2.1330 nc         1 PD5      -0.495100
     10 C2           0.0310     0.0010     2.3010 ca         1 PD5       0.751900
     11 NAC          3.4590    -0.0000     1.2910 nv         1 PD5      -1.020500
     12 CBB          1.8220     0.0010    -1.4020 cd         1 PD5       0.444500
     13 CAZ          3.2170     0.0020    -1.9050 ca         1 PD5      -0.117900
     14 CAO          4.1670    -0.8420    -1.3320 ca         1 PD5      -0.089500
     15 CAM          5.4630    -0.8400    -1.8010 ca         1 PD5      -0.151500
     16 CAN          3.5790     0.8420    -2.9570 ca         1 PD5      -0.089500
     17 CAL          4.8760     0.8410    -3.4240 ca         1 PD5      -0.151500
     18 CAX          5.8230     0.0030    -2.8470 ca         1 PD5       0.079600
     19 NAT          7.1390     0.0040    -3.3210 ns         1 PD5      -0.486100
     20 CAV          8.1650    -0.1620    -2.4620 c          1 PD5       0.784100
     21 OAD          7.9530    -0.2200    -1.2660 o          1 PD5      -0.635100
     22 NAU          9.4240    -0.2630    -2.9300 ns         1 PD5      -0.487100
     23 CAY         10.4790    -0.5280    -2.0490 ca         1 PD5       0.065600
     24 CAP         11.5300    -1.3420    -2.4460 ca         1 PD5      -0.119000
     25 CAJ         10.4780     0.0280    -0.7760 ca         1 PD5      -0.098000
     26 CAH         11.5190    -0.2330     0.0910 ca         1 PD5      -0.117000
     27 CAK         12.5630    -1.0490    -0.3060 ca         1 PD5      -0.096000
     28 CBA         12.5700    -1.6010    -1.5740 ca         1 PD5      -0.164300
     29 CBG         13.7120    -2.4850    -2.0060 c3         1 PD5       0.675200
     30 FAF         14.7100    -1.7030    -2.5940 f          1 PD5      -0.223300
     31 FAG         14.2360    -3.1470    -0.8890 f          1 PD5      -0.223300
     32 FAE         13.2490    -3.4250    -2.9320 f          1 PD5      -0.223300
     33 HAA         -3.0940     1.3240    -2.8530 hc         1 PD5       0.048033
     34 HAAA        -1.4600     1.2060    -3.5220 hc         1 PD5       0.048033
     35 HAAB        -1.7470     2.1380    -2.0460 hc         1 PD5       0.048033
     36 HBE         -2.4510     0.0040    -0.9140 h1         1 PD5       0.087700
     37 HAB         -1.4480    -1.1850    -3.5240 hc         1 PD5       0.048033
     38 HABA        -1.7590    -2.1180    -2.0530 hc         1 PD5       0.048033
     39 HABB        -3.0910    -1.2960    -2.8770 hc         1 PD5       0.048033
     40 H2          -0.5220     0.0010     3.2320 h5         1 PD5       0.060100
     41 HNAC         3.9310    -0.5690     1.9650 hn         1 PD5       0.449300
     42 HNAA         3.9850     0.5120     0.6110 hn         1 PD5       0.449300
     43 HAO          3.8870    -1.4990    -0.5170 ha         1 PD5       0.149500
     44 HAM          6.2020    -1.4940    -1.3540 ha         1 PD5       0.149000
     45 HAN          2.8420     1.4960    -3.4070 ha         1 PD5       0.149500
     46 HAL          5.1590     1.4950    -4.2400 ha         1 PD5       0.149000
     47 HNAT         7.3230     0.2470    -4.2740 hn         1 PD5       0.321500
     48 HNAU         9.6000    -0.1930    -3.9130 hn         1 PD5       0.323500
     49 HAP         11.5360    -1.7740    -3.4400 ha         1 PD5       0.146000
     50 HAJ          9.6600     0.6680    -0.4640 ha         1 PD5       0.172000
     51 HAH         11.5180     0.1990     1.0850 ha         1 PD5       0.145000
     52 HAK         13.3800    -1.2530     0.3760 ha         1 PD5       0.148000
     53 CBE         -1.7850     0.0080    -1.7680 c3         1 PD5       0.086000
@<TRIPOS>BOND
     1     8     1 1
     2     5     1 ar
     3     1     2 ar
     4    12     2 1
     5     2     3 ar
     6     4     3 ar
     7     3    11 1
     8    10     4 ar
     9     5    10 ar
    10    53     6 1
    11     6    33 1
    12     6    34 1
    13     6    35 1
    14     7    53 1
    15    53     8 1
    16    53    36 1
    17     7    37 1
    18     7    38 1
    19     7    39 1
    20     8     9 1
    21     9    12 2
    22    10    40 1
    23    11    41 1
    24    11    42 1
    25    12    13 1
    26    16    13 ar
    27    13    14 ar
    28    14    15 ar
    29    14    43 1
    30    18    15 ar
    31    15    44 1
    32    16    17 ar
    33    16    45 1
    34    17    18 ar
    35    17    46 1
    36    18    19 1
    37    20    19 1
    38    19    47 1
    39    21    20 2
    40    20    22 1
    41    23    22 1
    42    22    48 1
    43    24    23 ar
    44    23    25 ar
    45    28    24 ar
    46    24    49 1
    47    26    25 ar
    48    25    50 1
    49    27    26 ar
    50    26    51 1
    51    28    27 ar
    52    27    52 1
    53    29    28 1
    54    31    29 1
    55    32    29 1
    56    29    30 1
@<TRIPOS>SUBSTRUCTURE
     1 PD5         1 TEMP              0 ****  ****    0 ROOT
