@<TRIPOS>MOLECULE
molecule
   41    43     1     0     0
SMALL
bcc


@<TRIPOS>ATOM
      1 N3           0.0000     0.0000     0.0000 na         1 PD6      -0.485800
      2 C4          -2.0860    -0.0410     1.2220 ca         1 PD6      -0.399300
      3 C5          -0.7430    -0.0410     3.5720 ca         1 PD6       0.779200
      4 C6           1.3970    -0.0170     2.3970 c          1 PD6       0.564900
      5 C7           1.3560     0.0000     0.0000 cc         1 PD6       0.082000
      6 C8          -0.6010     0.0150    -1.3320 c3         1 PD6       0.212800
      7 C15         -4.2870    -0.0870     2.4390 cp         1 PD6      -0.149500
      8 C17         -4.9420    -0.6680     3.5270 ca         1 PD6      -0.095500
      9 C20         -6.3350    -0.7310     3.5740 ca         1 PD6      -0.139000
     10 C21         -6.4660     0.3530     1.4250 ca         1 PD6      -0.139000
     11 C22         -7.1060    -0.2210     2.5250 ca         1 PD6      -0.114000
     12 C1          -0.6900    -0.0240     1.1760 ca         1 PD6       0.269600
     13 C2           0.0010    -0.0300     2.3890 ca         1 PD6      -0.366900
     14 C9          -2.7960    -0.0550     2.4210 cp         1 PD6       0.596800
     15 N10         -2.0940    -0.0530     3.5800 nb         1 PD6      -0.823000
     16 N11         -0.2020    -0.0480     4.7950 nv         1 PD6      -0.948500
     17 C12          2.0780     0.0000     1.1850 cd         1 PD6      -0.290200
     18 O13          2.1520    -0.0210     3.4840 o          1 PD6      -0.676100
     19 C14         -0.7350     1.4410    -1.8860 c3         1 PD6      -0.103400
     20 C16         -1.5210     2.4290    -1.0130 c3         1 PD6      -0.082400
     21 C18         -5.0750     0.4070     1.3960 ca         1 PD6      -0.095500
     22 C19         -1.6390     3.8370    -1.6130 c3         1 PD6      -0.086100
     23 H4          -2.6370    -0.0460     0.2900 ha         1 PD6       0.134000
     24 H7           1.8870     0.0130    -0.9440 h4         1 PD6       0.156000
     25 H8           0.0180    -0.5670    -2.0040 h1         1 PD6       0.065700
     26 H8A         -1.5850    -0.4360    -1.2790 h1         1 PD6       0.065700
     27 H17         -4.3610    -1.0680     4.3490 ha         1 PD6       0.138000
     28 H20         -6.8240    -1.1820     4.4300 ha         1 PD6       0.134000
     29 H21         -7.0470     0.7500     0.6010 ha         1 PD6       0.134000
     30 H22         -8.1870    -0.2710     2.5650 ha         1 PD6       0.132000
     31 HN11         0.7930    -0.0660     4.9030 hn         1 PD6       0.463300
     32 HN1A        -0.7920    -0.0200     5.6030 hn         1 PD6       0.463300
     33 H12          3.1610    -0.0000     1.1650 ha         1 PD6       0.167000
     34 H14         -1.2240     1.3820    -2.8520 hc         1 PD6       0.049200
     35 H14A         0.2610     1.8400    -2.0340 hc         1 PD6       0.049200
     36 H16         -1.0280     2.5040    -0.0510 hc         1 PD6       0.045200
     37 H16A        -2.5180     2.0350    -0.8600 hc         1 PD6       0.045200
     38 H18         -4.5870     0.8580     0.5410 ha         1 PD6       0.138000
     39 H19         -0.6480     4.2370    -1.7940 hc         1 PD6       0.037033
     40 H19A        -2.1670     4.4820    -0.9200 hc         1 PD6       0.037033
     41 H19B        -2.1840     3.7870    -2.5470 hc         1 PD6       0.037033
@<TRIPOS>BOND
     1     1     5 1
     2     1     6 1
     3     1    12 1
     4     2    12 ar
     5     2    14 ar
     6     2    23 1
     7     3    13 ar
     8     3    15 ar
     9     3    16 1
    10     4    13 1
    11     4    17 1
    12     4    18 2
    13     5    17 2
    14     5    24 1
    15     6    19 1
    16     6    25 1
    17     6    26 1
    18     7     8 ar
    19     7    14 1
    20     7    21 ar
    21     8     9 ar
    22     8    27 1
    23     9    11 ar
    24     9    28 1
    25    10    11 ar
    26    10    21 ar
    27    10    29 1
    28    11    30 1
    29    12    13 ar
    30    14    15 ar
    31    16    31 1
    32    16    32 1
    33    17    33 1
    34    19    20 1
    35    19    34 1
    36    19    35 1
    37    20    22 1
    38    20    36 1
    39    20    37 1
    40    21    38 1
    41    22    39 1
    42    22    40 1
    43    22    41 1
@<TRIPOS>SUBSTRUCTURE
     1 PD6         1 TEMP              0 ****  ****    0 ROOT
