@<TRIPOS>MOLECULE
molecule
   57    56     1     0     0
SMALL
bcc


@<TRIPOS>ATOM
      1 O''          0.0000     0.0000     0.0000 o          1 PD7      -0.633000
      2 C''          1.2080     0.0000     0.0000 c          1 PD7       0.643100
      3 C1''         1.9610     0.0000     1.3050 c3         1 PD7      -0.128400
      4 C2''         0.9680     0.0000     2.4680 c3         1 PD7      -0.070400
      5 C3''         1.7330     0.0010     3.7930 c3         1 PD7      -0.084400
      6 C4''         0.7400     0.0010     4.9560 c3         1 PD7      -0.080400
      7 C5''         1.5050     0.0020     6.2810 c3         1 PD7      -0.085400
      8 C6''         0.5120     0.0030     7.4440 c3         1 PD7      -0.092100
      9 O3           1.8780    -0.0060    -1.1630 os         1 PD7      -0.313900
     10 C3           1.0870    -0.0130    -2.3800 c3         1 PD7       0.166400
     11 C2           2.0180    -0.0200    -3.5940 c3         1 PD7       0.132100
     12 C1           2.9840    -1.2010    -3.4890 c3         1 PD7       0.205400
     13 O3P          3.6770    -1.1400    -2.2400 os         1 PD7      -0.560200
     14 P            4.7750    -2.2290    -1.7930 p5         1 PD7       1.176900
     15 O4P          4.0660    -3.6630    -1.6110 o          1 PD7      -0.909833
     16 O1P          5.8260    -2.3260    -2.8310 o          1 PD7      -0.909833
     17 O2P          5.4400    -1.7790    -0.3970 o          1 PD7      -0.909833
     18 O2           2.7720     1.2210    -3.6330 os         1 PD7      -0.387900
     19 C'           3.1370     1.6750    -4.8420 c          1 PD7       0.639100
     20 O'           2.8370     1.0560    -5.8350 o          1 PD7      -0.587000
     21 C1'          3.9220     2.9560    -4.9600 c3         1 PD7      -0.129400
     22 C2'          4.2070     3.2450    -6.4360 c3         1 PD7      -0.071400
     23 C3'          5.0040     4.5460    -6.5550 c3         1 PD7      -0.084400
     24 C4'          5.2890     4.8340    -8.0300 c3         1 PD7      -0.080400
     25 C5'          6.0850     6.1350    -8.1510 c3         1 PD7      -0.085400
     26 C6'          6.3710     6.4240    -9.6260 c3         1 PD7      -0.092100
     27 H1''         2.5850     0.8840     1.3620 hc         1 PD7       0.099200
     28 H1AA         2.5840    -0.8850     1.3620 hc         1 PD7       0.099200
     29 H2''         0.3450     0.8850     2.4110 hc         1 PD7       0.041700
     30 H2AA         0.3460    -0.8840     2.4110 hc         1 PD7       0.041700
     31 H3''         2.3560     0.8860     3.8490 hc         1 PD7       0.048700
     32 H3AA         2.3570    -0.8830     3.8500 hc         1 PD7       0.048700
     33 H4''         0.1170     0.8860     4.8990 hc         1 PD7       0.034700
     34 H4AA         0.1180    -0.8830     4.8990 hc         1 PD7       0.034700
     35 H5''         2.1290     0.8870     6.3370 hc         1 PD7       0.041700
     36 H5AA         2.1280    -0.8820     6.3390 hc         1 PD7       0.041700
     37 H6''        -0.1110    -0.8810     7.3880 hc         1 PD7       0.023700
     38 H6AA         1.0540     0.0040     8.3820 hc         1 PD7       0.023700
     39 H6AB        -0.1110     0.8880     7.3870 hc         1 PD7       0.023700
     40 H3           0.4610    -0.8970    -2.3990 h1         1 PD7       0.032200
     41 H3A          0.4620     0.8720    -2.4090 h1         1 PD7       0.032200
     42 H2           1.4310    -0.1140    -4.4990 h1         1 PD7       0.044700
     43 H1           3.7000    -1.1560    -4.3010 h1         1 PD7       0.027700
     44 H1A          2.4280    -2.1290    -3.5490 h1         1 PD7       0.027700
     45 H1'          3.3480     3.7720    -4.5370 hc         1 PD7       0.068200
     46 H1'A         4.8580     2.8570    -4.4240 hc         1 PD7       0.068200
     47 H2'          4.7800     2.4290    -6.8590 hc         1 PD7       0.055700
     48 H2'A         3.2700     3.3440    -6.9710 hc         1 PD7       0.055700
     49 H3'          4.4300     5.3610    -6.1320 hc         1 PD7       0.038700
     50 H3'A         5.9400     4.4460    -6.0190 hc         1 PD7       0.038700
     51 H4'          4.3520     4.9330    -8.5660 hc         1 PD7       0.041200
     52 H4'A         5.8630     4.0190    -8.4540 hc         1 PD7       0.041200
     53 H5'          7.0210     6.0370    -7.6150 hc         1 PD7       0.037700
     54 H5'A         5.5110     6.9510    -7.7280 hc         1 PD7       0.037700
     55 H6'          6.9450     5.6090   -10.0490 hc         1 PD7       0.027033
     56 H6'A         6.9350     7.3450    -9.7110 hc         1 PD7       0.027033
     57 H6'B         5.4350     6.5230   -10.1630 hc         1 PD7       0.027033
@<TRIPOS>BOND
     1     2     1 2
     2     3     2 1
     3     2     9 1
     4     4     3 1
     5     3    27 1
     6     3    28 1
     7     4     5 1
     8     4    29 1
     9     4    30 1
    10     6     5 1
    11     5    31 1
    12     5    32 1
    13     6     7 1
    14     6    33 1
    15     6    34 1
    16     8     7 1
    17     7    35 1
    18     7    36 1
    19     8    37 1
    20     8    38 1
    21     8    39 1
    22     9    10 1
    23    11    10 1
    24    10    40 1
    25    10    41 1
    26    18    11 1
    27    11    12 1
    28    11    42 1
    29    12    13 1
    30    12    43 1
    31    12    44 1
    32    13    14 1
    33    16    14 1
    34    14    17 1
    35    14    15 1
    36    19    18 1
    37    21    19 1
    38    20    19 2
    39    22    21 1
    40    21    45 1
    41    21    46 1
    42    23    22 1
    43    22    47 1
    44    22    48 1
    45    24    23 1
    46    23    49 1
    47    23    50 1
    48    25    24 1
    49    24    51 1
    50    24    52 1
    51    26    25 1
    52    25    53 1
    53    25    54 1
    54    26    55 1
    55    26    56 1
    56    26    57 1
@<TRIPOS>SUBSTRUCTURE
     1 PD7         1 TEMP              0 ****  ****    0 ROOT
