@<TRIPOS>MOLECULE
PD7
   57    56     1     0     0
SMALL
bcc


@<TRIPOS>ATOM
      1 O''        -0.6130   -0.5470   -0.6820 o         1 PD7     -0.614000
      2 C''         0.4050    0.1530   -0.7590 c         1 PD7      0.697100
      3 C1''        1.3060    0.6700    0.2930 c3        1 PD7     -0.219400
      4 C2''        0.7280    0.5820    1.6830 c3        1 PD7     -0.037400
      5 C3''        1.8480    0.6430    2.7020 c3        1 PD7     -0.114400
      6 C4''        1.3550    0.3000    4.0900 c3        1 PD7     -0.064400
      7 C5''        2.4850    0.3520    5.0970 c3        1 PD7     -0.085400
      8 C6''        2.0210   -0.0250    6.4810 c3        1 PD7     -0.085100
      9 O3          0.7680    0.5640   -2.0310 os        1 PD7     -0.457900
     10 C3          0.6580   -0.3980   -3.0750 c3        1 PD7      0.144400
     11 C2          2.0410   -0.7630   -3.6100 c3        1 PD7      0.091100
     12 C1          2.8250   -1.7790   -2.7360 c3        1 PD7      0.234400
     13 O3P         2.7110   -1.5310   -1.4020 os        1 PD7     -0.564200
     14 P           4.1820   -1.7300   -0.4810 p5        1 PD7      1.323900
     15 O4P         4.2120   -3.2080   -0.2350 o         1 PD7     -0.914833
     16 O1P         5.2340   -1.1980   -1.4110 o         1 PD7     -0.914833
     17 O2P         3.8250   -0.8540    0.7000 o         1 PD7     -0.914833
     18 O2          2.8730    0.4100   -3.6940 os        1 PD7     -0.349900
     19 C'          2.7090    1.2580   -4.7270 c         1 PD7      0.630100
     20 O'          1.8950    1.0230   -5.6340 o         1 PD7     -0.623000
     21 C1'         3.6160    2.4510   -4.6150 c3        1 PD7     -0.139400
     22 C2'         4.0510    2.9440   -5.9770 c3        1 PD7     -0.074400
     23 C3'         4.8570    4.2190   -5.8590 c3        1 PD7     -0.079400
     24 C4'         5.3140    4.7070   -7.2170 c3        1 PD7     -0.077400
     25 C5'         6.1180    5.9850   -7.1040 c3        1 PD7     -0.081400
     26 C6'         6.5760    6.4750   -8.4530 c3        1 PD7     -0.089100
     27 H1''        1.6420    1.7060    0.0480 hc        1 PD7      0.153200
     28 H1AA        2.2690   -0.0070    0.2320 hc        1 PD7      0.153200
     29 H2''       -0.0080    1.4100    1.8650 hc        1 PD7      0.012700
     30 H2AA        0.1710   -0.3860    1.7910 hc        1 PD7      0.012700
     31 H3''        2.2970    1.6700    2.7060 hc        1 PD7      0.089200
     32 H3AA        2.6660   -0.0740    2.3750 hc        1 PD7      0.089200
     33 H4''        0.9090   -0.7290    4.0840 hc        1 PD7      0.016700
     34 H4AA        0.5430    1.0100    4.4010 hc        1 PD7      0.016700
     35 H5''        2.9220    1.3850    5.1160 hc        1 PD7      0.046200
     36 H5AA        3.3000   -0.3450    4.7640 hc        1 PD7      0.046200
     37 H6''        1.6120   -1.0650    6.4860 hc        1 PD7      0.014700
     38 H6AA        2.8690    0.0230    7.2060 hc        1 PD7      0.014700
     39 H6AB        1.2180    0.6670    6.8320 hc        1 PD7      0.014700
     40 H3          0.0540    0.1060   -3.8770 h1        1 PD7      0.043200
     41 H3A         0.1440   -1.3290   -2.7200 h1        1 PD7      0.043200
     42 H2          1.9120   -1.1850   -4.6460 h1        1 PD7      0.022700
     43 H1          2.3500   -2.7750   -3.0070 h1        1 PD7      0.012700
     44 H1A         3.9060   -1.7660   -3.0610 h1        1 PD7      0.012700
     45 H1'         4.5050    2.1740   -3.9860 hc        1 PD7      0.083700
     46 H1'A        3.0490    3.2500   -4.0670 hc        1 PD7      0.083700
     47 H2'         3.1460    3.1170   -6.6180 hc        1 PD7      0.046700
     48 H2'A        4.6650    2.1520   -6.4810 hc        1 PD7      0.046700
     49 H3'         4.2380    5.0120   -5.3630 hc        1 PD7      0.040200
     50 H3'A        5.7500    4.0380   -5.2030 hc        1 PD7      0.040200
     51 H4'         4.4210    4.8820   -7.8740 hc        1 PD7      0.036200
     52 H4'A        5.9360    3.9150   -7.7100 hc        1 PD7      0.036200
     53 H5'         5.4940    6.7750   -6.6070 hc        1 PD7      0.037700
     54 H5'A        7.0080    5.8070   -6.4450 hc        1 PD7      0.037700
     55 H6'         7.2190    5.7100   -8.9510 hc        1 PD7      0.025033
     56 H6'A        7.1660    7.4170   -8.3470 hc        1 PD7      0.025033
     57 H6'B        5.7000    6.6800   -9.1160 hc        1 PD7      0.025033
@<TRIPOS>BOND
     1    1    2 2   
     2    2    3 1   
     3    2    9 1   
     4    3    4 1   
     5    3   27 1   
     6    3   28 1   
     7    4    5 1   
     8    4   29 1   
     9    4   30 1   
    10    5    6 1   
    11    5   31 1   
    12    5   32 1   
    13    6    7 1   
    14    6   33 1   
    15    6   34 1   
    16    7    8 1   
    17    7   35 1   
    18    7   36 1   
    19    8   37 1   
    20    8   38 1   
    21    8   39 1   
    22    9   10 1   
    23   10   11 1   
    24   10   40 1   
    25   10   41 1   
    26   11   12 1   
    27   11   18 1   
    28   11   42 1   
    29   12   13 1   
    30   12   43 1   
    31   12   44 1   
    32   13   14 1   
    33   14   15 1   
    34   14   16 1   
    35   14   17 1   
    36   18   19 1   
    37   19   20 2   
    38   19   21 1   
    39   21   22 1   
    40   21   45 1   
    41   21   46 1   
    42   22   23 1   
    43   22   47 1   
    44   22   48 1   
    45   23   24 1   
    46   23   49 1   
    47   23   50 1   
    48   24   25 1   
    49   24   51 1   
    50   24   52 1   
    51   25   26 1   
    52   25   53 1   
    53   25   54 1   
    54   26   55 1   
    55   26   56 1   
    56   26   57 1   
@<TRIPOS>SUBSTRUCTURE
     1 PD7         1 TEMP              0 ****  ****    0 ROOT
