@<TRIPOS>MOLECULE
molecule
   35    35     1     0     0
SMALL
bcc


@<TRIPOS>ATOM
      1 N            0.0000     0.0000     0.0000 n7         1 PDA      -0.731200
      2 N1          -4.6610     1.6060    -0.0020 nb         1 PDA      -0.725000
      3 C2          -4.0250     1.5760     1.1520 ca         1 PDA       0.328600
      4 C2A         -4.8090     1.6130     2.4370 c3         1 PDA      -0.120400
      5 C3          -2.6410     1.5100     1.1940 ca         1 PDA      -0.043200
      6 O3A         -1.9880     1.4790     2.3860 oh         1 PDA      -0.525100
      7 C4          -1.9280     1.4760    -0.0010 ca         1 PDA      -0.074300
      8 C4A         -0.4240     1.4050    -0.0000 c3         1 PDA       0.191100
      9 C5          -2.6360     1.5160    -1.1900 ca         1 PDA      -0.114600
     10 C5A         -1.9110     1.4810    -2.5100 c3         1 PDA       0.180700
     11 OP4         -2.8600     1.5210    -3.5760 os         1 PDA      -0.557200
     12 P           -2.0220     1.4810    -4.9490 p5         1 PDA       1.154900
     13 OP1         -1.2220     0.2380    -5.0030 o          1 PDA      -0.909833
     14 OP2         -3.0350     1.5240    -6.2000 o          1 PDA      -0.909833
     15 OP3         -1.0390     2.7540    -5.0130 o          1 PDA      -0.909833
     16 C6          -4.0160     1.5760    -1.1520 ca         1 PDA       0.420200
     17 CA           1.4690     0.0000     0.0000 c3         1 PDA       0.049500
     18 CB           1.9790     0.0000     1.4430 c3         1 PDA      -0.107100
     19 C            1.9730    -1.2290    -0.7100 c          1 PDA       0.903600
     20 OXT          3.2930    -1.4400    -0.8330 o          1 PDA      -0.846300
     21 O            1.1890    -2.0260    -1.1700 o          1 PDA      -0.846300
     22 HN          -0.3340    -0.4490     0.8300 hn         1 PDA       0.333800
     23 H2A1        -4.5870     2.5300     2.9690 hc         1 PDA       0.023700
     24 H2A2        -5.8690     1.5720     2.2150 hc         1 PDA       0.023700
     25 H2A3        -4.5360     0.7640     3.0520 hc         1 PDA       0.023700
     26 HOA         -1.9630     2.3470     2.7530 ho         1 PDA       0.386000
     27 H4A1        -0.0390     1.8990    -0.8840 h1         1 PDA       0.032700
     28 H4A2        -0.0400     1.8990     0.8850 h1         1 PDA       0.032700
     29 H5A1        -1.3290     0.5700    -2.5780 h1         1 PDA       0.087700
     30 H5A2        -1.2510     2.3380    -2.5820 h1         1 PDA       0.087700
     31 H6          -4.5760     1.6050    -2.0790 h4         1 PDA       0.067100
     32 HA           1.8290     0.8850    -0.5100 h1         1 PDA       0.057700
     33 HB1          3.0620    -0.0370     1.4430 hc         1 PDA       0.012033
     34 HB2          1.5880    -0.8650     1.9640 hc         1 PDA       0.012033
     35 HB3          1.6480     0.9020     1.9430 hc         1 PDA       0.012033
@<TRIPOS>BOND
     1     1     8 1
     2     1    17 1
     3     1    22 1
     4     2     3 ar
     5     2    16 ar
     6     3     4 1
     7     3     5 ar
     8     4    23 1
     9     4    24 1
    10     4    25 1
    11     5     6 1
    12     5     7 ar
    13     6    26 1
    14     7     8 1
    15     7     9 ar
    16     8    27 1
    17     8    28 1
    18     9    10 1
    19     9    16 ar
    20    10    11 1
    21    10    29 1
    22    10    30 1
    23    11    12 1
    24    12    13 1
    25    12    14 1
    26    12    15 1
    27    16    31 1
    28    17    18 1
    29    17    19 1
    30    17    32 1
    31    18    33 1
    32    18    34 1
    33    18    35 1
    34    19    20 1
    35    19    21 1
@<TRIPOS>SUBSTRUCTURE
     1 PDA         1 TEMP              0 ****  ****    0 ROOT
