@<TRIPOS>MOLECULE
PDB
   36    38     1     0     0
SMALL
bcc


@<TRIPOS>ATOM
      1 C2           0.0000     0.0000     0.0000 ca         1 PDB      -0.023600
      2 C3           1.3820     0.0000     0.0000 ca         1 PDB      -0.086000
      3 C4           2.0730     0.0000     1.1970 ca         1 PDB      -0.073000
      4 C5           1.3860     0.0010     2.3970 ca         1 PDB      -0.087000
      5 F5          -3.5490     4.9170     6.9510 f          1 PDB      -0.208967
      6 C6           0.0050     0.0010     2.4030 ca         1 PDB      -0.105000
      7 F6          -5.5330     5.8920     6.3730 f          1 PDB      -0.208967
      8 C7          -0.6940     0.0070     1.2040 ca         1 PDB      -0.163200
      9 F7          -3.6500     6.3220     5.1530 f          1 PDB      -0.208967
     10 N8          -2.0950     0.0130     1.2070 na         1 PDB       0.626300
     11 N9          -2.9210    -0.8280     0.4490 nc         1 PDB      -0.650800
     12 C10         -4.1710    -0.5470     0.7000 cd         1 PDB       0.498200
     13 C11         -2.8840     0.8290     1.9470 cc         1 PDB      -0.184700
     14 C12         -4.2070     0.5000     1.6410 cd         1 PDB      -0.427900
     15 N13         -2.6510     1.8280     2.8550 na         1 PDB      -0.162600
     16 C14         -3.6720     2.4770     3.4420 cc         1 PDB       0.463200
     17 N15         -4.9240     2.2060     3.1940 nd         1 PDB      -0.621100
     18 C16         -5.2740     1.2460     2.3150 c          1 PDB       0.758100
     19 O17         -6.4470     1.0030     2.0880 o          1 PDB      -0.579100
     20 C18         -3.3560     3.5660     4.4330 c3         1 PDB      -0.059700
     21 C19         -4.6600     4.1600     4.9710 c3         1 PDB      -0.093700
     22 C20         -5.4150     3.0950     5.7680 c3         1 PDB       0.004900
     23 C21         -4.3420     5.3480     5.8820 c3         1 PDB       0.566900
     24 Cl1         -0.8690     0.0000    -1.5040 cl         1 PDB       0.035600
     25 H1           1.9240    -0.0030    -0.9380 ha         1 PDB       0.123000
     26 H2           3.1570     0.0000     1.1950 ha         1 PDB       0.112000
     27 H3           1.9310    -0.0010     3.3330 ha         1 PDB       0.113000
     28 H4          -0.5330     0.0040     3.3430 ha         1 PDB       0.111000
     29 H5          -5.0320    -1.0350     0.2600 h4         1 PDB       0.021100
     30 H6          -1.7090     2.0790     3.0830 hn         1 PDB       0.279800
     31 H7          -2.7820     3.1530     5.2530 hc         1 PDB       0.039700
     32 H8          -2.7800     4.3430     3.9450 hc         1 PDB       0.039700
     33 H9          -5.2730     4.4950     4.1430 hc         1 PDB       0.084700
     34 H10         -5.6690     3.4880     6.7450 hc         1 PDB       0.022700
     35 H11         -6.3230     2.8260     5.2410 hc         1 PDB       0.022700
     36 H12         -4.7900     2.2180     5.8820 hc         1 PDB       0.022700
@<TRIPOS>BOND
     1     1     2 ar  
     2     1     8 ar  
     3     1    24 1   
     4     2     3 ar  
     5     2    25 1   
     6     3     4 ar  
     7     3    26 1   
     8     4     6 ar  
     9     4    27 1   
    10     5    23 1   
    11     6     8 ar  
    12     6    28 1   
    13     7    23 1   
    14     8    10 1   
    15     9    23 1   
    16    10    11 1   
    17    10    13 1   
    18    11    12 2   
    19    12    14 1   
    20    12    29 1   
    21    13    14 2   
    22    13    15 1   
    23    14    18 1   
    24    15    16 1   
    25    15    30 1   
    26    16    17 2   
    27    16    20 1   
    28    17    18 1   
    29    18    19 2   
    30    20    21 1   
    31    20    31 1   
    32    20    32 1   
    33    21    22 1   
    34    21    23 1   
    35    21    33 1   
    36    22    34 1   
    37    22    35 1   
    38    22    36 1   
@<TRIPOS>SUBSTRUCTURE
     1 PDB         1 TEMP              0 ****  ****    0 ROOT
