@<TRIPOS>MOLECULE
PDC
   15    15     1     0     0
SMALL
bcc


@<TRIPOS>ATOM
      1 N1          0.0110    0.4990    0.0050 nb        1 PDC     -0.646000
      2 C2          1.3230    0.1640   -0.0120 ca        1 PDC      0.389800
      3 C3          1.9590   -0.4930    1.0670 ca        1 PDC     -0.283300
      4 C4          1.2120   -0.8120    2.1980 ca        1 PDC     -0.132000
      5 C5         -0.1380   -0.4730    2.2270 ca        1 PDC     -0.283300
      6 C6         -0.7050    0.1840    1.1090 ca        1 PDC      0.389800
      7 C7          2.2110    0.4840   -1.2240 c         1 PDC      0.822100
      8 O1          2.8400    1.5790   -1.2270 o         1 PDC     -0.845300
      9 O2          2.3270   -0.3960   -2.1230 o         1 PDC     -0.845300
     10 C8         -2.1990    0.5250    1.2150 c         1 PDC      0.822100
     11 O3         -2.5200    1.6280    1.7410 o         1 PDC     -0.845300
     12 O4         -3.0350   -0.3440    0.8410 o         1 PDC     -0.845300
     13 H3          3.0240   -0.7380    0.9950 ha        1 PDC      0.113000
     14 H4          1.6790   -1.3220    3.0510 ha        1 PDC      0.079000
     15 H5         -0.7680   -0.7020    3.0940 ha        1 PDC      0.113000
@<TRIPOS>BOND
     1    1    2 ar  
     2    1    6 ar  
     3    2    3 ar  
     4    2    7 1   
     5    3    4 ar  
     6    3   13 1   
     7    4    5 ar  
     8    4   14 1   
     9    5    6 ar  
    10    5   15 1   
    11    6   10 1   
    12    7    8 1   
    13    7    9 1   
    14   10   11 1   
    15   10   12 1   
@<TRIPOS>SUBSTRUCTURE
     1 PDC         1 TEMP              0 ****  ****    0 ROOT
