@<TRIPOS>MOLECULE
molecule
   15    15     1     0     0
SMALL
bcc


@<TRIPOS>ATOM
      1 N1           0.0000     0.0000     0.0000 nb         1 PDC      -0.594000
      2 C2           1.3230     0.0000     0.0000 ca         1 PDC       0.380300
      3 C3           2.0350     0.0000     1.2010 ca         1 PDC      -0.260800
      4 C4           1.3400    -0.0040     2.4000 ca         1 PDC      -0.165000
      5 C5          -0.0450    -0.0080     2.3630 ca         1 PDC      -0.260800
      6 C6          -0.6940    -0.0080     1.1260 ca         1 PDC       0.380300
      7 C7           2.0570     0.0050    -1.2860 c          1 PDC       0.788100
      8 O1           3.2700     0.0080    -1.2940 o          1 PDC      -0.846300
      9 O2           1.3770     0.0050    -2.4480 o          1 PDC      -0.846300
     10 C8          -2.1740    -0.0130     1.0770 c          1 PDC       0.788100
     11 O3          -2.8170    -0.0160     2.1060 o          1 PDC      -0.846300
     12 O4          -2.8070    -0.0120    -0.1120 o          1 PDC      -0.846300
     13 H3           3.1180     0.0020     1.1960 ha         1 PDC       0.124000
     14 H4           1.8690    -0.0040     3.3460 ha         1 PDC       0.081000
     15 H5          -0.6180    -0.0130     3.2820 ha         1 PDC       0.124000
@<TRIPOS>BOND
     1     1     2 ar
     2     1     6 ar
     3     2     3 ar
     4     2     7 1
     5     3     4 ar
     6     3    13 1
     7     4     5 ar
     8     4    14 1
     9     5     6 ar
    10     5    15 1
    11     6    10 1
    12     7     8 1
    13     7     9 1
    14    10    11 1
    15    10    12 1
@<TRIPOS>SUBSTRUCTURE
     1 PDC         1 TEMP              0 ****  ****    0 ROOT
