@<TRIPOS>MOLECULE
PDE
   39    39     1     0     0
SMALL
bcc


@<TRIPOS>ATOM
      1 P1           0.0000     0.0000     0.0000 p5         1 PDE       0.608600
      2 O1           1.6100     0.0000     0.0000 os         1 PDE      -0.372500
      3 O2          -0.5360     0.0000     1.5190 o          1 PDE      -0.638500
      4 O3          -0.4920     1.2080    -0.6980 o          1 PDE      -0.638500
      5 C8          -0.6080    -1.4880    -0.8590 c3         1 PDE      -0.034600
      6 C9          -2.1330    -1.4270    -0.9690 c3         1 PDE       0.025600
      7 C10         -2.6430    -2.6760    -1.6900 c3         1 PDE      -0.107400
      8 C11         -4.1460    -2.6150    -1.7970 c          1 PDE       0.555100
      9 N2          -4.8190    -3.6150    -2.4000 ns         1 PDE      -0.168900
     10 O6          -4.7480    -1.6660    -1.3420 o          1 PDE      -0.678100
     11 C12         -6.2790    -3.5560    -2.5040 c3         1 PDE      -0.095300
     12 C1D         -6.6680    -2.7450    -3.7420 c3         1 PDE       0.003900
     13 C13         -6.8300    -4.9530    -2.6250 c          1 PDE       0.980600
     14 O7          -6.0810    -5.9010    -2.6230 o          1 PDE      -0.902300
     15 O8          -8.1550    -5.1450    -2.7340 o          1 PDE      -0.902300
     16 C1           2.0030     1.1780     0.5500 ca         1 PDE       0.319100
     17 C2           2.2050     1.2740     1.9190 ca         1 PDE      -0.161000
     18 C6           2.2100     2.2870    -0.2580 ca         1 PDE      -0.161000
     19 C4           2.8050     3.5790     1.6690 ca         1 PDE      -0.533200
     20 C5           2.6050     3.4860     0.3030 ca         1 PDE      -0.004500
     21 C3           2.6060     2.4740     2.4750 ca         1 PDE      -0.004500
     22 N1           3.2330     4.8630     2.2670 no         1 PDE       1.073200
     23 O4           3.4080     5.8370     1.5580 o          1 PDE      -0.494000
     24 O5           3.4080     4.9450     3.4690 o          1 PDE      -0.494000
     25 HC81        -0.1760    -1.5340    -1.8520 hc         1 PDE       0.007700
     26 HC82        -0.3210    -2.3700    -0.3000 hc         1 PDE       0.007700
     27 HC91        -2.5640    -1.3820     0.0240 hc         1 PDE       0.040700
     28 HC92        -2.4200    -0.5450    -1.5280 hc         1 PDE       0.040700
     29 H101        -2.3570    -3.5590    -1.1310 hc         1 PDE       0.010700
     30 H102        -2.2120    -2.7220    -2.6820 hc         1 PDE       0.010700
     31 HN2         -4.3220    -4.4030    -2.7670 hn         1 PDE       0.184500
     32 H12         -6.6860    -3.0820    -1.6190 h1         1 PDE       0.053700
     33 H1D1        -7.3440    -3.3280    -4.3570 hc         1 PDE      -0.002967
     34 H1D2        -7.1590    -1.8300    -3.4340 hc         1 PDE      -0.002967
     35 H1D3        -5.7780    -2.5040    -4.3100 hc         1 PDE      -0.002967
     36 HC2          2.0490     0.4080     2.5520 ha         1 PDE       0.130500
     37 HC6          2.0540     2.2150    -1.3280 ha         1 PDE       0.130500
     38 HC5          2.7640     4.3530    -0.3270 ha         1 PDE       0.109500
     39 HC3          2.7630     2.5490     3.5440 ha         1 PDE       0.109500
@<TRIPOS>BOND
     1     1     2 1   
     2     1     3 1   
     3     1     4 1   
     4     1     5 1   
     5     2    16 1   
     6     5     6 1   
     7     5    25 1   
     8     5    26 1   
     9     6     7 1   
    10     6    27 1   
    11     6    28 1   
    12     7     8 1   
    13     7    29 1   
    14     7    30 1   
    15     8     9 1   
    16     8    10 2   
    17     9    11 1   
    18     9    31 1   
    19    11    12 1   
    20    11    13 1   
    21    11    32 1   
    22    12    33 1   
    23    12    34 1   
    24    12    35 1   
    25    13    14 1   
    26    13    15 1   
    27    16    17 ar  
    28    16    18 ar  
    29    17    21 ar  
    30    17    36 1   
    31    18    20 ar  
    32    18    37 1   
    33    19    20 ar  
    34    19    21 ar  
    35    19    22 1   
    36    20    38 1   
    37    21    39 1   
    38    22    23 1   
    39    22    24 1   
@<TRIPOS>SUBSTRUCTURE
     1 PDE         1 TEMP              0 ****  ****    0 ROOT
