@<TRIPOS>MOLECULE
PDF
   16    16     1     0     0
SMALL
bcc


@<TRIPOS>ATOM
      1 N            0.0000     0.0000     0.0000 n7         1 PDF      -0.535200
      2 CD           1.4790     0.0000     0.0000 c3         1 PDF       0.090800
      3 CA          -0.4050    -0.6110     1.2920 c3         1 PDF       0.014500
      4 CB           0.6220    -0.0310     2.2960 c3         1 PDF      -0.044400
      5 CG           1.9300     0.0000     1.4720 c3         1 PDF       0.340600
      6 C           -1.8050    -0.1920     1.6630 c          1 PDF       0.979600
      7 O           -2.3030     0.7790     1.1430 o          1 PDF      -0.881300
      8 F1           2.7020    -1.1340     1.7450 f          1 PDF      -0.234800
      9 F2           2.6560     1.1620     1.7580 f          1 PDF      -0.234800
     10 HN          -0.3340    -0.5650    -0.7560 hn         1 PDF       0.245800
     11 HD           1.8480     0.8890    -0.4980 h1         1 PDF       0.016200
     12 HDA          1.8480    -0.8890    -0.4980 h1         1 PDF       0.016200
     13 HA          -0.3220    -1.6900     1.2440 h1         1 PDF       0.011700
     14 HB           0.7270    -0.6840     3.1540 hc         1 PDF       0.048200
     15 HBA          0.3370     0.9690     2.5990 hc         1 PDF       0.048200
     16 O2          -2.4990    -0.8990     2.5690 o          1 PDF      -0.881300
@<TRIPOS>BOND
     1     1     2 1   
     2     1     3 1   
     3     1    10 1   
     4     2     5 1   
     5     2    11 1   
     6     2    12 1   
     7     3     4 1   
     8     3     6 1   
     9     3    13 1   
    10     4     5 1   
    11     4    14 1   
    12     4    15 1   
    13     5     8 1   
    14     5     9 1   
    15     6     7 1   
    16     6    16 1   
@<TRIPOS>SUBSTRUCTURE
     1 PDF         1 TEMP              0 ****  ****    0 ROOT
