@<TRIPOS>MOLECULE
molecule
   16    16     1     0     0
SMALL
bcc


@<TRIPOS>ATOM
      1 N            0.0000     0.0000     0.0000 n7         1 PDF      -0.757200
      2 CD           1.4790     0.0000     0.0000 c3         1 PDF       0.099800
      3 CA          -0.4050    -0.6110     1.2920 c3         1 PDF       0.048500
      4 CB           0.6220    -0.0310     2.2960 c3         1 PDF      -0.092400
      5 CG           1.9300     0.0000     1.4720 c3         1 PDF       0.368600
      6 C           -1.8050    -0.1920     1.6630 c          1 PDF       0.897600
      7 O           -2.3030     0.7790     1.1430 o          1 PDF      -0.830800
      8 F1           2.7020    -1.1340     1.7450 f          1 PDF      -0.254800
      9 F2           2.6560     1.1620     1.7580 f          1 PDF      -0.254800
     10 HN          -0.3340    -0.5650    -0.7560 hn         1 PDF       0.342800
     11 HD           1.8480     0.8890    -0.4980 h1         1 PDF       0.040700
     12 HDA          1.8480    -0.8890    -0.4980 h1         1 PDF       0.040700
     13 HA          -0.3220    -1.6900     1.2440 h1         1 PDF       0.027700
     14 HB           0.7270    -0.6840     3.1540 hc         1 PDF       0.076200
     15 HBA          0.3370     0.9690     2.5990 hc         1 PDF       0.076200
     16 O2          -2.4990    -0.8990     2.5690 o          1 PDF      -0.830800
@<TRIPOS>BOND
     1     1     2 1
     2     1    10 1
     3     2    11 1
     4     2    12 1
     5     3     1 1
     6     3     4 1
     7     3    13 1
     8     4     5 1
     9     4    14 1
    10     4    15 1
    11     5     2 1
    12     5     8 1
    13     6     3 1
    14     6     7 1
    15     6    16 1
    16     9     5 1
@<TRIPOS>SUBSTRUCTURE
     1 PDF         1 TEMP              0 ****  ****    0 ROOT
