@<TRIPOS>MOLECULE
molecule
   40    40     1     0     0
SMALL
bcc


@<TRIPOS>ATOM
      1 N1           0.0000     0.0000     0.0000 nb         1 PDG      -0.739000
      2 C2           1.3180     0.0000     0.0000 ca         1 PDG       0.314600
      3 C2A          2.0640    -0.0050    -1.3100 c3         1 PDG      -0.118400
      4 C3           2.0270     0.0000     1.1930 ca         1 PDG      -0.020200
      5 O3           3.3860     0.0010     1.1870 oh         1 PDG      -0.500100
      6 C4           1.3260     0.0100     2.3950 ca         1 PDG      -0.066300
      7 C4A          2.0560     0.0160     3.7130 c3         1 PDG       0.195100
      8 C5          -0.0580     0.0080     2.3500 ca         1 PDG      -0.133600
      9 C6          -0.6940     0.0030     1.1220 ca         1 PDG       0.404200
     10 C5A         -0.8630     0.0140     3.6240 c3         1 PDG       0.179700
     11 OP4         -2.2560     0.0100     3.3080 os         1 PDG      -0.568200
     12 P           -3.0510     0.0150     4.7080 p5         1 PDG       1.158900
     13 OP1         -2.6000     1.1620     5.5270 o          1 PDG      -0.912500
     14 OP2         -4.6310     0.1460     4.4270 o          1 PDG      -0.912500
     15 OP3         -2.7570    -1.3570     5.4960 o          1 PDG      -0.912500
     16 NA           2.2930    -1.3670     4.1470 n7         1 PDG      -0.793200
     17 CAA          3.0030    -1.2910     5.4310 c3         1 PDG       0.036500
     18 CBA          3.8150    -2.5700     5.6420 c3         1 PDG      -0.029400
     19 CGA          4.9100    -2.6610     4.5790 c3         1 PDG      -0.177400
     20 CDA          5.7090    -3.9220     4.7870 c          1 PDG       0.893600
     21 OE1          6.7310    -4.2120     3.9650 o          1 PDG      -0.898300
     22 OE2          5.4310    -4.6700     5.6930 o          1 PDG      -0.898300
     23 CA           2.0050    -1.1380     6.5490 c          1 PDG       0.848600
     24 OA           0.8220    -1.0980     6.3030 o          1 PDG      -0.838800
     25 OXT          2.4280    -1.0480     7.8200 o          1 PDG      -0.838800
     26 H2A1         2.7620    -0.8330    -1.3250 hc         1 PDG       0.019700
     27 H2A2         2.6060     0.9270    -1.4200 hc         1 PDG       0.019700
     28 H2A3         1.3590    -0.1110    -2.1260 hc         1 PDG       0.019700
     29 HO3          3.6990     0.8760     1.0320 ho         1 PDG       0.376000
     30 H4A1         1.4570     0.5300     4.4550 h1         1 PDG       0.042200
     31 H4A2         3.0050     0.5260     3.5980 h1         1 PDG       0.042200
     32 H6          -1.7770     0.0020     1.0800 h4         1 PDG       0.057100
     33 H5A1        -0.6230    -0.8680     4.2060 h1         1 PDG       0.097200
     34 H5A2        -0.6250     0.9010     4.1970 h1         1 PDG       0.097200
     35 HNA          1.4160    -1.8310     4.2780 hn         1 PDG       0.382800
     36 HAA          3.6700    -0.4370     5.4240 h1         1 PDG       0.022700
     37 HBA1         3.1610    -3.4300     5.5610 hc         1 PDG       0.046700
     38 HBA2         4.2670    -2.5520     6.6260 hc         1 PDG       0.046700
     39 HGA1         5.5650    -1.8010     4.6600 hc         1 PDG       0.028700
     40 HGA2         4.4580    -2.6780     3.5940 hc         1 PDG       0.028700
@<TRIPOS>BOND
     1     1     2 ar
     2     1     9 ar
     3     2     3 1
     4     2     4 ar
     5     3    26 1
     6     3    27 1
     7     3    28 1
     8     4     5 1
     9     4     6 ar
    10     5    29 1
    11     6     7 1
    12     6     8 ar
    13     7    16 1
    14     7    30 1
    15     7    31 1
    16     8     9 ar
    17     8    10 1
    18     9    32 1
    19    10    11 1
    20    10    33 1
    21    10    34 1
    22    11    12 1
    23    12    13 1
    24    12    14 1
    25    12    15 1
    26    16    17 1
    27    16    35 1
    28    17    18 1
    29    17    23 1
    30    17    36 1
    31    18    19 1
    32    18    37 1
    33    18    38 1
    34    19    20 1
    35    19    39 1
    36    19    40 1
    37    20    21 1
    38    20    22 1
    39    23    24 1
    40    23    25 1
@<TRIPOS>SUBSTRUCTURE
     1 PDG         1 TEMP              0 ****  ****    0 ROOT
