@<TRIPOS>MOLECULE
molecule
   25    25     1     0     0
SMALL
bcc


@<TRIPOS>ATOM
      1 C            0.0000     0.0000     0.0000 c3         1 PDH       0.114400
      2 O           -0.4770    -1.1660     0.6740 oh         1 PDH      -0.630800
      3 CA           1.5300     0.0000     0.0000 c3         1 PDH       0.110500
      4 N            2.0200     0.0000     1.3830 nz         1 PDH      -0.803600
      5 CB           2.0410     1.2480    -0.7220 c3         1 PDH      -0.052100
      6 CG           3.5460     1.2480    -0.7210 ca         1 PDH      -0.156300
      7 CD1          4.2370     0.6490    -1.7580 ca         1 PDH      -0.133000
      8 CD2          4.2380     1.8510     0.3110 ca         1 PDH      -0.133000
      9 CE1          5.6190     0.6490    -1.7580 ca         1 PDH      -0.106500
     10 CE2          5.6200     1.8470     0.3130 ca         1 PDH      -0.106500
     11 CZ           6.3110     1.2470    -0.7230 ca         1 PDH      -0.096000
     12 H1          -0.3610    -0.0000    -1.0210 h1         1 PDH       0.067200
     13 H2          -0.3610     0.8850     0.5100 h1         1 PDH       0.067200
     14 HO          -1.3910    -1.2890     0.4790 ho         1 PDH       0.453000
     15 HA           1.8900    -0.8850    -0.5100 hx         1 PDH       0.126700
     16 HN           1.5230    -0.6880     1.9130 hn         1 PDH       0.459133
     17 H            2.9970    -0.2150     1.3910 hn         1 PDH       0.459133
     18 HB1          1.6800     1.2480    -1.7430 hc         1 PDH       0.088700
     19 HB2          1.6800     2.1330    -0.2120 hc         1 PDH       0.088700
     20 HD1          3.6950     0.1790    -2.5700 ha         1 PDH       0.129000
     21 HD2          3.6970     2.3210     1.1230 ha         1 PDH       0.129000
     22 HE1          6.1600     0.1790    -2.5710 ha         1 PDH       0.154500
     23 HE2          6.1620     2.3180     1.1240 ha         1 PDH       0.154500
     24 HZ           7.3940     1.2450    -0.7230 ha         1 PDH       0.157000
     25 HN3          1.8780     0.9040     1.7880 hn         1 PDH       0.459133
@<TRIPOS>BOND
     1     1     2 1
     2     1     3 1
     3     1    12 1
     4     1    13 1
     5     2    14 1
     6     3     4 1
     7     3     5 1
     8     3    15 1
     9     4    16 1
    10     4    17 1
    11     5     6 1
    12     5    18 1
    13     5    19 1
    14     6     7 ar
    15     6     8 ar
    16     7     9 ar
    17     7    20 1
    18     8    10 ar
    19     8    21 1
    20     9    11 ar
    21     9    22 1
    22    10    11 ar
    23    10    23 1
    24    11    24 1
    25    25     4 1
@<TRIPOS>SUBSTRUCTURE
     1 PDH         1 TEMP              0 ****  ****    0 ROOT
