@<TRIPOS>MOLECULE
molecule
   16    15     1     0     0
SMALL
bcc


@<TRIPOS>ATOM
      1 O3P          0.0000     0.0000     0.0000 o          1 PDI      -0.914167
      2 P            1.6090     0.0000     0.0000 p5         1 PDI       1.160900
      3 O1P          2.1020     0.0000     1.3950 o          1 PDI      -0.914167
      4 O2P          2.1470    -1.3120    -0.7600 o          1 PDI      -0.914167
      5 OA           2.1460     1.3170    -0.7560 os         1 PDI      -0.541200
      6 CA           3.5720     1.2590    -0.7230 c3         1 PDI       0.162400
      7 CB           4.1490     2.4880    -1.4280 c3         1 PDI      -0.086400
      8 CG           5.6770     2.4270    -1.3940 c3         1 PDI       0.129400
      9 OG           6.2160     3.5740    -2.0530 oh         1 PDI      -0.630800
     10 HA1          3.9090     0.3620    -1.2280 h1         1 PDI       0.036200
     11 HA2          3.9090     1.2430     0.3060 h1         1 PDI       0.036200
     12 HB1          3.8120     2.5040    -2.4570 hc         1 PDI       0.040200
     13 HB2          3.8120     3.3850    -0.9230 hc         1 PDI       0.040200
     14 HG1          6.0150     2.4100    -0.3640 h1         1 PDI       0.013700
     15 HG2          6.0150     1.5300    -1.8980 h1         1 PDI       0.013700
     16 HGT          7.1580     3.5360    -2.0310 ho         1 PDI       0.369000
@<TRIPOS>BOND
     1     1     2 1
     2     2     3 1
     3     2     4 1
     4     2     5 1
     5     5     6 1
     6     6     7 1
     7     6    10 1
     8     6    11 1
     9     7     8 1
    10     7    12 1
    11     7    13 1
    12     8     9 1
    13     8    14 1
    14     8    15 1
    15     9    16 1
@<TRIPOS>SUBSTRUCTURE
     1 PDI         1 TEMP              0 ****  ****    0 ROOT
