@<TRIPOS>MOLECULE
PDI
   16    15     1     0     0
SMALL
bcc


@<TRIPOS>ATOM
      1 O3P         0.0730    0.0790   -0.0680 o         1 PDI     -0.936833
      2 P           1.5590   -0.1200    0.0500 p5        1 PDI      1.312900
      3 O1P         2.1520    0.0340    1.4280 o         1 PDI     -0.936833
      4 O2P         2.1600   -1.2260   -0.7790 o         1 PDI     -0.936833
      5 OA          2.1840    1.2960   -0.7560 os        1 PDI     -0.563200
      6 CA          3.5570    1.2580   -0.7290 c3        1 PDI      0.199400
      7 CB          4.1400    2.4900   -1.4340 c3        1 PDI     -0.098400
      8 CG          5.6520    2.4270   -1.3950 c3        1 PDI      0.127400
      9 OG          6.1810    3.5780   -2.0520 oh        1 PDI     -0.625800
     10 HA1         3.9250    0.3240   -1.2440 h1        1 PDI      0.005700
     11 HA2         3.9190    1.2320    0.3390 h1        1 PDI      0.005700
     12 HB1         3.7810    3.4210   -0.9280 hc        1 PDI      0.032700
     13 HB2         3.7840    2.5240   -2.4930 hc        1 PDI      0.032700
     14 HG1         6.0220    1.5030   -1.9170 h1        1 PDI      0.009700
     15 HG2         6.0190    2.4090   -0.3330 h1        1 PDI      0.009700
     16 HGT         7.1390    3.4950   -2.0030 ho        1 PDI      0.360000
@<TRIPOS>BOND
     1    1    2 1   
     2    2    3 1   
     3    2    4 1   
     4    2    5 1   
     5    5    6 1   
     6    6    7 1   
     7    6   10 1   
     8    6   11 1   
     9    7    8 1   
    10    7   12 1   
    11    7   13 1   
    12    8    9 1   
    13    8   14 1   
    14    8   15 1   
    15    9   16 1   
@<TRIPOS>SUBSTRUCTURE
     1 PDI         1 TEMP              0 ****  ****    0 ROOT
