@<TRIPOS>MOLECULE
molecule
  121   120     1     0     0
SMALL
bcc


@<TRIPOS>ATOM
      1 CB           0.0000     0.0000     0.0000 c3         1 PDJ      -0.061300
      2 SG          -0.6050    -1.4820     0.8540 ss         1 PDJ      -0.322200
      3 C            2.0390     1.2500    -0.7200 c3         1 PDJ       0.113400
      4 O            3.4630     1.1930    -0.8230 oh         1 PDJ      -0.621800
      5 N            2.0190     0.0000     1.3850 nz         1 PDJ      -0.807600
      6 CA           1.5300     0.0000     0.0000 c3         1 PDJ       0.132500
      7 C1          -2.4070    -1.3050     0.7520 c3         1 PDJ       0.012700
      8 C2          -3.0770    -2.4970     1.4390 c3         1 PDJ       0.163100
      9 O2          -2.6720    -3.7250     0.7790 os         1 PDJ      -0.405900
     10 C3          -4.5970    -2.3480     1.3530 c3         1 PDJ       0.153400
     11 O3          -4.9890    -2.1850    -0.0350 os         1 PDJ      -0.439900
     12 C11        -20.8740     0.3650   -11.8170 c3         1 PDJ      -0.092100
     13 C12        -20.3850     0.1880   -10.3790 c3         1 PDJ      -0.084400
     14 C13        -18.8620     0.0460   -10.3720 c3         1 PDJ      -0.081400
     15 C14        -18.3720    -0.1310    -8.9330 c3         1 PDJ      -0.082400
     16 C15        -16.8490    -0.2730    -8.9270 c3         1 PDJ      -0.082400
     17 C16        -16.3580    -0.4490    -7.4880 c3         1 PDJ      -0.082400
     18 C17        -14.8350    -0.5910    -7.4820 c3         1 PDJ      -0.081400
     19 C18        -14.3460    -0.7680    -6.0430 c3         1 PDJ      -0.081400
     20 C19        -12.8220    -0.9100    -6.0370 c3         1 PDJ      -0.082400
     21 C20        -12.3320    -1.0860    -4.5980 c3         1 PDJ      -0.081400
     22 C21        -10.8090    -1.2290    -4.5920 c3         1 PDJ      -0.081400
     23 C22        -10.3190    -1.4060    -3.1530 c3         1 PDJ      -0.079400
     24 C23         -8.7960    -1.5480    -3.1470 c3         1 PDJ      -0.083400
     25 C24         -8.3060    -1.7240    -1.7090 c3         1 PDJ      -0.073400
     26 C25         -6.7830    -1.8660    -1.7020 c3         1 PDJ      -0.123400
     27 C26         -6.3000    -2.0400    -0.2850 c          1 PDJ       0.627100
     28 O28         -7.0940    -2.0490     0.6270 o          1 PDJ      -0.534000
     29 C31         11.1640   -18.0810     1.1090 c3         1 PDJ      -0.092100
     30 C32         10.6770   -16.7820     1.7540 c3         1 PDJ      -0.084400
     31 C33          9.4140   -16.3000     1.0380 c3         1 PDJ      -0.082400
     32 C34          8.9260   -15.0010     1.6830 c3         1 PDJ      -0.082400
     33 C35          7.6630   -14.5200     0.9670 c3         1 PDJ      -0.081400
     34 C36          7.1760   -13.2210     1.6120 c3         1 PDJ      -0.081400
     35 C37          5.9120   -12.7390     0.8960 c3         1 PDJ      -0.082400
     36 C38          5.4240   -11.4400     1.5400 c3         1 PDJ      -0.081400
     37 C39          4.1610   -10.9580     0.8250 c3         1 PDJ      -0.081400
     38 C40          3.6740    -9.6580     1.4700 c3         1 PDJ      -0.081400
     39 C41          2.4100    -9.1760     0.7540 c3         1 PDJ      -0.082400
     40 C42          1.9230    -7.8770     1.3990 c3         1 PDJ      -0.079400
     41 C43          0.6600    -7.3950     0.6820 c3         1 PDJ      -0.084400
     42 C44          0.1720    -6.0960     1.3270 c3         1 PDJ      -0.072400
     43 C45         -1.0920    -5.6140     0.6110 c3         1 PDJ      -0.123400
     44 C46         -1.5720    -4.3350     1.2470 c          1 PDJ       0.636100
     45 O47         -0.9660    -3.8570     2.1770 o          1 PDJ      -0.560000
     46 H111       -20.4220     1.2510   -12.2460 hc         1 PDJ       0.033033
     47 H112       -21.9520     0.4720   -11.8220 hc         1 PDJ       0.033033
     48 H113       -20.5950    -0.5020   -12.4030 hc         1 PDJ       0.033033
     49 H121       -20.8330    -0.7020    -9.9520 hc         1 PDJ       0.040200
     50 H122       -20.6690     1.0530    -9.7910 hc         1 PDJ       0.040200
     51 H131       -18.5770    -0.8190   -10.9590 hc         1 PDJ       0.040700
     52 H132       -18.4140     0.9350   -10.7990 hc         1 PDJ       0.040700
     53 H141       -18.6560     0.7350    -8.3460 hc         1 PDJ       0.041200
     54 H142       -18.8190    -1.0200    -8.5060 hc         1 PDJ       0.041200
     55 H151       -16.4010     0.6160    -9.3540 hc         1 PDJ       0.040700
     56 H152       -16.5640    -1.1380    -9.5130 hc         1 PDJ       0.040700
     57 H161       -16.6430     0.4160    -6.9020 hc         1 PDJ       0.041700
     58 H162       -16.8060    -1.3380    -7.0610 hc         1 PDJ       0.041700
     59 H171       -14.3880     0.2980    -7.9090 hc         1 PDJ       0.041200
     60 H172       -14.5510    -1.4560    -8.0690 hc         1 PDJ       0.041200
     61 H181       -14.6300     0.0970    -5.4560 hc         1 PDJ       0.042200
     62 H182       -14.7930    -1.6580    -5.6160 hc         1 PDJ       0.042200
     63 H191       -12.3750    -0.0210    -6.4640 hc         1 PDJ       0.041200
     64 H192       -12.5380    -1.7750    -6.6230 hc         1 PDJ       0.041200
     65 H201       -12.6170    -0.2210    -4.0120 hc         1 PDJ       0.043200
     66 H202       -12.7800    -1.9760    -4.1710 hc         1 PDJ       0.043200
     67 H211       -10.5240    -2.0930    -5.1800 hc         1 PDJ       0.040700
     68 H212       -10.3610    -0.3390    -5.0190 hc         1 PDJ       0.040700
     69 H221       -10.7660    -2.2960    -2.7260 hc         1 PDJ       0.045700
     70 H222       -10.6030    -0.5420    -2.5650 hc         1 PDJ       0.045700
     71 H231        -8.3490    -0.6590    -3.5740 hc         1 PDJ       0.040700
     72 H232        -8.5120    -2.4130    -3.7340 hc         1 PDJ       0.040700
     73 H241        -8.7540    -2.6130    -1.2810 hc         1 PDJ       0.061700
     74 H242        -8.5900    -0.8590    -1.1220 hc         1 PDJ       0.061700
     75 H251        -6.4980    -2.7310    -2.2890 hc         1 PDJ       0.072200
     76 H252        -6.3350    -0.9770    -2.1290 hc         1 PDJ       0.072200
     77 H31         -4.9070    -1.4800     1.9210 h1         1 PDJ       0.075200
     78 H32         -5.0700    -3.2340     1.7600 h1         1 PDJ       0.075200
     79 H2          -2.7760    -2.5300     2.4790 h1         1 PDJ       0.094700
     80 H11         -2.7080    -1.2720    -0.2880 h1         1 PDJ       0.088200
     81 H12         -2.7080    -0.3890     1.2440 h1         1 PDJ       0.088200
     82 HB1         -0.3610     0.0010    -1.0210 h1         1 PDJ       0.093700
     83 HB2         -0.3610     0.8840     0.5110 h1         1 PDJ       0.093700
     84 HA           1.8910    -0.8840    -0.5110 hx         1 PDJ       0.134700
     85 HN1          2.5800     0.8140     1.5410 hn         1 PDJ       0.462800
     86 HN2          1.2410     0.0050     2.0140 hn         1 PDJ       0.462800
     87 H1           1.7520     2.1360    -0.1670 h1         1 PDJ       0.068200
     88 H2A          1.6070     1.2880    -1.7130 h1         1 PDJ       0.068200
     89 HO           3.7470     1.7280    -1.5460 ho         1 PDJ       0.452000
     90 H451        -0.8690    -5.4370    -0.4340 hc         1 PDJ       0.081700
     91 H452        -1.8630    -6.3700     0.6930 hc         1 PDJ       0.081700
     92 H441        -0.0510    -6.2730     2.3720 hc         1 PDJ       0.053200
     93 H442         0.9440    -5.3400     1.2450 hc         1 PDJ       0.053200
     94 H431         0.8830    -7.2180    -0.3630 hc         1 PDJ       0.045700
     95 H432        -0.1120    -8.1510     0.7640 hc         1 PDJ       0.045700
     96 H421         1.7000    -8.0550     2.4440 hc         1 PDJ       0.041200
     97 H422         2.6950    -7.1220     1.3170 hc         1 PDJ       0.041200
     98 H411         2.6330    -8.9990    -0.2910 hc         1 PDJ       0.044200
     99 H412         1.6380    -9.9320     0.8360 hc         1 PDJ       0.044200
    100 H401         4.4460    -8.9030     1.3880 hc         1 PDJ       0.040700
    101 H402         3.4510    -9.8350     2.5150 hc         1 PDJ       0.040700
    102 H391         4.3830   -10.7810    -0.2210 hc         1 PDJ       0.042700
    103 H392         3.3890   -11.7130     0.9070 hc         1 PDJ       0.042700
    104 H381         6.1960   -10.6840     1.4580 hc         1 PDJ       0.041200
    105 H382         5.2020   -11.6160     2.5860 hc         1 PDJ       0.041200
    106 H371         6.1350   -12.5620    -0.1500 hc         1 PDJ       0.041700
    107 H372         5.1400   -13.4950     0.9780 hc         1 PDJ       0.041700
    108 H361         6.9530   -13.3980     2.6570 hc         1 PDJ       0.040700
    109 H362         7.9480   -12.4650     1.5300 hc         1 PDJ       0.040700
    110 H351         7.8850   -14.3430    -0.0790 hc         1 PDJ       0.041700
    111 H352         6.8910   -15.2750     1.0490 hc         1 PDJ       0.041700
    112 H341         9.6980   -14.2460     1.6000 hc         1 PDJ       0.041200
    113 H342         8.7040   -15.1780     2.7280 hc         1 PDJ       0.041200
    114 H331         9.6440   -16.0960    -0.0010 hc         1 PDJ       0.041700
    115 H332         8.6510   -17.0680     1.0940 hc         1 PDJ       0.041700
    116 H321        11.4490   -16.0270     1.6730 hc         1 PDJ       0.040200
    117 H322        10.4530   -16.9600     2.7990 hc         1 PDJ       0.040200
    118 H311        10.3860   -18.8320     1.1750 hc         1 PDJ       0.033367
    119 H312        12.0490   -18.4320     1.6260 hc         1 PDJ       0.033367
    120 H313        11.4030   -17.8990     0.0680 hc         1 PDJ       0.033367
    121 HN3          2.5680    -0.8210     1.5440 hn         1 PDJ       0.462800
@<TRIPOS>BOND
     1     1     2 1
     2     1     6 1
     3     1    82 1
     4     1    83 1
     5     2     7 1
     6     3     6 1
     7     3     4 1
     8     3    87 1
     9     3    88 1
    10     4    89 1
    11     5     6 1
    12     5    85 1
    13     5    86 1
    14     6    84 1
    15     7     8 1
    16     7    80 1
    17     7    81 1
    18     8    10 1
    19     8     9 1
    20     8    79 1
    21     9    44 1
    22    10    11 1
    23    10    77 1
    24    10    78 1
    25    11    27 1
    26    12    13 1
    27    12    46 1
    28    12    47 1
    29    12    48 1
    30    13    14 1
    31    13    49 1
    32    13    50 1
    33    14    15 1
    34    14    51 1
    35    14    52 1
    36    15    16 1
    37    15    53 1
    38    15    54 1
    39    16    17 1
    40    16    55 1
    41    16    56 1
    42    17    18 1
    43    17    57 1
    44    17    58 1
    45    18    19 1
    46    18    59 1
    47    18    60 1
    48    19    20 1
    49    19    61 1
    50    19    62 1
    51    20    21 1
    52    20    63 1
    53    20    64 1
    54    21    22 1
    55    21    65 1
    56    21    66 1
    57    22    23 1
    58    22    67 1
    59    22    68 1
    60    23    24 1
    61    23    69 1
    62    23    70 1
    63    24    25 1
    64    24    71 1
    65    24    72 1
    66    25    26 1
    67    25    73 1
    68    25    74 1
    69    26    27 1
    70    26    75 1
    71    26    76 1
    72    27    28 2
    73    29    30 1
    74    29   118 1
    75    29   119 1
    76    29   120 1
    77    30    31 1
    78    30   116 1
    79    30   117 1
    80    31    32 1
    81    31   114 1
    82    31   115 1
    83    32    33 1
    84    32   112 1
    85    32   113 1
    86    33    34 1
    87    33   110 1
    88    33   111 1
    89    34    35 1
    90    34   108 1
    91    34   109 1
    92    35    36 1
    93    35   106 1
    94    35   107 1
    95    36    37 1
    96    36   104 1
    97    36   105 1
    98    37    38 1
    99    37   102 1
   100    37   103 1
   101    38    39 1
   102    38   100 1
   103    38   101 1
   104    39    40 1
   105    39    98 1
   106    39    99 1
   107    40    41 1
   108    40    96 1
   109    40    97 1
   110    41    42 1
   111    41    94 1
   112    41    95 1
   113    42    43 1
   114    42    92 1
   115    42    93 1
   116    43    44 1
   117    43    90 1
   118    43    91 1
   119    44    45 2
   120   121     5 1
@<TRIPOS>SUBSTRUCTURE
     1 PDJ         1 TEMP              0 ****  ****    0 ROOT
