@<TRIPOS>MOLECULE
PDM
   36    37     1     0     0
SMALL
bcc


@<TRIPOS>ATOM
      1 CP1          0.0000     0.0000     0.0000 ca         1 PDM      -0.198400
      2 CP2          1.3880     0.0000     0.0000 ca         1 PDM      -0.028500
      3 CP3          2.0780     0.0000     1.1950 ca         1 PDM      -0.201000
      4 CP4          1.3850    -0.0020     2.3970 ca         1 PDM       0.094600
      5 CP5         -0.0030    -0.0080     2.3980 ca         1 PDM      -0.201000
      6 CP6         -0.6930    -0.0010     1.2020 ca         1 PDM      -0.028500
      7 CP7          1.3530    -0.0040     4.8770 c3         1 PDM       0.338300
      8 CP8          2.1780     0.7160     5.9440 c3         1 PDM      -0.032400
      9 CP9          1.4150     0.7140     7.2680 c3         1 PDM      -0.132400
     10 C10          2.2290     1.4230     8.3200 c          1 PDM       0.981600
     11 C11         -1.8130    -0.7190    -1.4100 c          1 PDM       0.609000
     12 NP1         -0.7010     0.0000    -1.2160 n          1 PDM       0.053400
     13 NP2          2.0840    -0.0030     3.6090 nu         1 PDM      -0.410600
     14 OP3          1.1150    -1.3510     5.2880 oh         1 PDM      -0.591800
     15 OP4          1.7530     1.5450     9.5690 o          1 PDM      -0.902800
     16 OP5          3.3100     1.8830     8.0380 o          1 PDM      -0.902800
     17 C12         -2.3130    -0.4910    -2.8210 c3         1 PDM      -0.120900
     18 C14         -0.3180     0.7250    -2.2730 c          1 PDM       0.609000
     19 C13         -1.2870     0.4950    -3.4130 c3         1 PDM      -0.120900
     20 HP2          1.9290    -0.0390    -0.9380 ha         1 PDM       0.112500
     21 HP3          3.1620    -0.0210     1.1950 ha         1 PDM       0.117000
     22 HP5         -0.5440    -0.0520     3.3350 ha         1 PDM       0.117000
     23 HP6         -1.7300     0.2350     1.4080 ha         1 PDM       0.112500
     24 HP7          0.4060     0.5060     4.7480 h2         1 PDM       0.012700
     25 HP81         2.3580     1.7380     5.6320 hc         1 PDM       0.033700
     26 HP82         3.1260     0.2070     6.0720 hc         1 PDM       0.033700
     27 HP91         0.4680     1.2240     7.1400 hc         1 PDM       0.009700
     28 HP92         1.2350    -0.3080     7.5800 hc         1 PDM       0.009700
     29 HP2N         3.0840    -0.0350     3.6080 hn         1 PDM       0.299800
     30 HP3O         0.1870    -1.5200     5.2900 ho         1 PDM       0.384000
     31 H121        -2.3130    -1.4200    -3.3790 hc         1 PDM       0.045950
     32 H122        -3.3010    -0.0470    -2.8060 hc         1 PDM       0.045950
     33 H131        -0.7780     0.0500    -4.2600 hc         1 PDM       0.045950
     34 H132        -1.7700     1.4230    -3.6940 hc         1 PDM       0.045950
     35 OP2          0.6560     1.4470    -2.3140 o          1 PDM      -0.620500
     36 OP1         -2.3380    -1.4370    -0.5870 o          1 PDM      -0.620500
@<TRIPOS>BOND
     1     1     2 ar  
     2     1     6 ar  
     3     1    12 1   
     4     2     3 ar  
     5     2    20 1   
     6     3     4 ar  
     7     3    21 1   
     8     4     5 ar  
     9     4    13 1   
    10     5     6 ar  
    11     5    22 1   
    12     6    23 1   
    13     7     8 1   
    14     7    13 1   
    15     7    14 1   
    16     7    24 1   
    17     8     9 1   
    18     8    25 1   
    19     8    26 1   
    20     9    10 1   
    21     9    27 1   
    22     9    28 1   
    23    10    15 1   
    24    10    16 1   
    25    11    12 1   
    26    11    17 1   
    27    11    36 2   
    28    12    18 1   
    29    13    29 1   
    30    14    30 1   
    31    17    19 1   
    32    17    31 1   
    33    17    32 1   
    34    18    19 1   
    35    18    35 2   
    36    19    33 1   
    37    19    34 1   
@<TRIPOS>SUBSTRUCTURE
     1 PDM         1 TEMP              0 ****  ****    0 ROOT
