@<TRIPOS>MOLECULE
PDN
   52    55     1     0     0
SMALL
bcc


@<TRIPOS>ATOM
      1 C1          1.5370    0.0680   -0.0440 c2        1 PDN     -0.105200
      2 C2          2.3230    0.2700    1.0180 ce        1 PDN     -0.247200
      3 C3          1.7840    0.3740    2.3820 c         1 PDN      0.560500
      4 C4          0.3180    0.3280    2.4800 ce        1 PDN     -0.246200
      5 C5         -0.4800    0.1320    1.4170 c2        1 PDN     -0.047400
      6 C6         -1.9630    0.1380    1.5660 c3        1 PDN     -0.054200
      7 C7         -2.5870    1.1480    0.6270 c3        1 PDN     -0.072400
      8 C8         -2.1560    0.8940   -0.8080 c3        1 PDN     -0.044700
      9 C9         -0.6210    0.9230   -0.9290 c3        1 PDN     -0.143700
     10 C10         0.0450   -0.1010    0.0200 c3        1 PDN      0.017400
     11 C11        -0.2030    0.8190   -2.3840 c         1 PDN      0.579100
     12 C12        -0.8570    1.7980   -3.3340 c3        1 PDN     -0.166400
     13 C13        -2.3660    1.6830   -3.2040 c3        1 PDN     -0.027000
     14 C14        -2.7250    1.9570   -1.7260 c3        1 PDN     -0.073700
     15 C15        -4.2300    2.1870   -1.7410 c3        1 PDN     -0.068400
     16 C16        -4.5060    2.8780   -3.0780 c3        1 PDN     -0.100400
     17 C17        -3.2080    2.7800   -3.9260 c3        1 PDN      0.216000
     18 C18        -2.8160    0.3160   -3.6920 c3        1 PDN     -0.091100
     19 C19        -0.2650   -1.5420   -0.3920 c3        1 PDN     -0.088100
     20 C20        -3.4780    2.4770   -5.3770 c2        1 PDN      0.014900
     21 C21        -2.7270    2.9800   -6.3830 c2        1 PDN     -0.100900
     22 O1          2.5090    0.5030    3.3790 o         1 PDN     -0.534100
     23 O2          0.6390    0.0190   -2.8050 o         1 PDN     -0.540100
     24 O3         -2.4630    3.9920   -3.8340 oh        1 PDN     -0.599800
     25 O4         -4.5790    1.6770   -5.5860 oh        1 PDN     -0.501100
     26 O5         -3.1110    2.7070   -7.6830 oh        1 PDN     -0.525100
     27 HC1         1.9690   -0.0260   -1.0560 ha        1 PDN      0.158000
     28 HC2         3.4170    0.3640    0.9240 ha        1 PDN      0.152000
     29 HC4        -0.0950    0.4760    3.4920 ha        1 PDN      0.149000
     30 HC61       -2.3590   -0.8900    1.3420 hc        1 PDN      0.057700
     31 HC62       -2.2520    0.3820    2.6230 hc        1 PDN      0.057700
     32 HC71       -2.2910    2.1850    0.9350 hc        1 PDN      0.051200
     33 HC72       -3.7050    1.0820    0.6920 hc        1 PDN      0.051200
     34 HC8        -2.5340   -0.1190   -1.1180 hc        1 PDN      0.064700
     35 HC9        -0.2720    1.9450   -0.5920 hc        1 PDN      0.080700
     36 H121       -0.5360    1.5790   -4.3850 hc        1 PDN      0.081200
     37 H122       -0.5230    2.8380   -3.0790 hc        1 PDN      0.081200
     38 HC41       -2.2460    2.9420   -1.4460 hc        1 PDN      0.064700
     39 H151       -4.5490    2.8240   -0.8810 hc        1 PDN      0.048700
     40 H152       -4.7840    1.2170   -1.6740 hc        1 PDN      0.048700
     41 H161       -5.3570    2.3830   -3.6070 hc        1 PDN      0.063700
     42 H162       -4.7680    3.9530   -2.9200 hc        1 PDN      0.063700
     43 H181       -2.6020    0.2110   -4.7840 hc        1 PDN      0.047033
     44 H182       -3.9160    0.1900   -3.5400 hc        1 PDN      0.047033
     45 H183       -2.2720   -0.4960   -3.1520 hc        1 PDN      0.047033
     46 H191        0.2020   -2.2510    0.3340 hc        1 PDN      0.051367
     47 H192        0.1490   -1.7440   -1.4100 hc        1 PDN      0.051367
     48 H193       -1.3650   -1.7210   -0.4080 hc        1 PDN      0.051367
     49 HC12       -1.8500    3.6210   -6.2300 h4        1 PDN      0.156000
     50 HO3        -3.0280    4.6970   -4.1760 ho        1 PDN      0.410000
     51 HO4        -4.6210    1.4710   -6.5340 ho        1 PDN      0.434000
     52 HO5        -2.2990    2.6560   -8.2070 ho        1 PDN      0.421000
@<TRIPOS>BOND
     1    1    2 2   
     2    1   10 1   
     3    1   27 1   
     4    2    3 1   
     5    2   28 1   
     6    3    4 1   
     7    3   22 2   
     8    4    5 2   
     9    4   29 1   
    10    5    6 1   
    11    5   10 1   
    12    6    7 1   
    13    6   30 1   
    14    6   31 1   
    15    7    8 1   
    16    7   32 1   
    17    7   33 1   
    18    8    9 1   
    19    8   14 1   
    20    8   34 1   
    21    9   10 1   
    22    9   11 1   
    23    9   35 1   
    24   10   19 1   
    25   11   12 1   
    26   11   23 2   
    27   12   13 1   
    28   12   36 1   
    29   12   37 1   
    30   13   14 1   
    31   13   17 1   
    32   13   18 1   
    33   14   15 1   
    34   14   38 1   
    35   15   16 1   
    36   15   39 1   
    37   15   40 1   
    38   16   17 1   
    39   16   41 1   
    40   16   42 1   
    41   17   20 1   
    42   17   24 1   
    43   18   43 1   
    44   18   44 1   
    45   18   45 1   
    46   19   46 1   
    47   19   47 1   
    48   19   48 1   
    49   20   21 2   
    50   20   25 1   
    51   21   26 1   
    52   21   49 1   
    53   24   50 1   
    54   25   51 1   
    55   26   52 1   
@<TRIPOS>SUBSTRUCTURE
     1 PDN         1 TEMP              0 ****  ****    0 ROOT
