@<TRIPOS>MOLECULE
molecule
   52    55     1     0     0
SMALL
bcc


@<TRIPOS>ATOM
      1 C1           0.0000     0.0000     0.0000 c2         1 PDN      -0.105200
      2 C2           1.3230     0.0000     0.0000 ce         1 PDN      -0.250200
      3 C3           2.0550     0.0000     1.2780 c          1 PDN       0.561500
      4 C4           1.2840     0.0610     2.5280 ce         1 PDN      -0.241200
      5 C5          -0.0410     0.0680     2.5050 c2         1 PDN      -0.059400
      6 C6          -0.7970     0.1540     3.8170 c3         1 PDN      -0.049200
      7 C7          -1.8320     1.2800     3.7120 c3         1 PDN      -0.073400
      8 C8          -2.7120     1.0420     2.4860 c3         1 PDN      -0.062700
      9 C9          -1.8480     1.1370     1.2170 c3         1 PDN      -0.150700
     10 C10         -0.8410    -0.0130     1.2410 c3         1 PDN       0.012400
     11 C11         -2.7150     1.0560    -0.0120 c          1 PDN       0.579100
     12 C12         -3.9790     1.8980    -0.0900 c3         1 PDN      -0.153400
     13 C13         -4.7360     1.6610     1.2050 c3         1 PDN      -0.044000
     14 C14         -3.8040     2.0840     2.3740 c3         1 PDN      -0.072700
     15 C15         -4.7720     2.1490     3.5630 c3         1 PDN      -0.071400
     16 C16         -6.0380     2.8040     2.9510 c3         1 PDN      -0.104400
     17 C17         -5.9830     2.5180     1.4060 c3         1 PDN       0.219000
     18 C18         -5.0940     0.1800     1.3370 c3         1 PDN      -0.087100
     19 C19         -1.6230    -1.3290     1.2670 c3         1 PDN      -0.087100
     20 C20         -7.2190     1.7750     0.9700 c2         1 PDN      -0.013100
     21 C21         -8.0080     2.2910     0.0440 c2         1 PDN      -0.056900
     22 O1           3.2710    -0.0470     1.2990 o          1 PDN      -0.531100
     23 O2          -2.4090     0.3290    -0.9260 o          1 PDN      -0.532100
     24 O3          -5.8590     3.7430     0.6810 oh         1 PDN      -0.596800
     25 O4          -7.5250     0.5740     1.5280 oh         1 PDN      -0.498100
     26 O5          -9.1230     1.6220    -0.3500 oh         1 PDN      -0.503100
     27 HC1         -0.5080     0.0090    -0.9570 ha         1 PDN       0.167000
     28 HC2          1.8650    -0.0700    -0.9350 ha         1 PDN       0.153000
     29 HC4          1.8040     0.1010     3.4770 ha         1 PDN       0.149000
     30 HC61        -1.3010    -0.7860     4.0090 hc         1 PDN       0.057200
     31 HC62        -0.1040     0.3720     4.6210 hc         1 PDN       0.057200
     32 HC71        -1.3220     2.2300     3.6100 hc         1 PDN       0.049200
     33 HC72        -2.4490     1.2870     4.6020 hc         1 PDN       0.049200
     34 HC8         -3.1580     0.0560     2.5470 hc         1 PDN       0.075700
     35 HC9         -1.3150     2.0800     1.2170 hc         1 PDN       0.084700
     36 H121        -4.5820     1.5830    -0.9340 hc         1 PDN       0.081700
     37 H122        -3.7200     2.9460    -0.1820 hc         1 PDN       0.081700
     38 HC41        -3.3770     3.0600     2.1810 hc         1 PDN       0.064700
     39 H151        -4.3660     2.7710     4.3520 hc         1 PDN       0.052700
     40 H152        -4.9960     1.1540     3.9280 hc         1 PDN       0.052700
     41 H161        -6.0270     3.8720     3.1300 hc         1 PDN       0.052200
     42 H162        -6.9290     2.3590     3.3780 hc         1 PDN       0.052200
     43 H181        -4.2020    -0.4200     1.2070 hc         1 PDN       0.052367
     44 H182        -5.5140    -0.0040     2.3180 hc         1 PDN       0.052367
     45 H183        -5.8210    -0.0840     0.5780 hc         1 PDN       0.052367
     46 H191        -2.3400    -1.3390     0.4550 hc         1 PDN       0.049033
     47 H192        -2.1460    -1.4190     2.2110 hc         1 PDN       0.049033
     48 H193        -0.9370    -2.1590     1.1530 hc         1 PDN       0.049033
     49 HC12        -7.7650     3.2490    -0.4010 h4         1 PDN       0.143000
     50 HO3         -6.3630     4.4140     1.1100 ho         1 PDN       0.406000
     51 HO4         -8.4380     0.5590     1.7620 ho         1 PDN       0.415000
     52 HO5         -9.6570     2.1870    -0.8830 ho         1 PDN       0.420000
@<TRIPOS>BOND
     1     1     2 2
     2     1    10 1
     3     1    27 1
     4     2     3 1
     5     2    28 1
     6     3     4 1
     7     3    22 2
     8     4     5 2
     9     4    29 1
    10     5     6 1
    11     5    10 1
    12     6     7 1
    13     6    30 1
    14     6    31 1
    15     7     8 1
    16     7    32 1
    17     7    33 1
    18     8     9 1
    19     8    14 1
    20     8    34 1
    21     9    10 1
    22     9    11 1
    23     9    35 1
    24    10    19 1
    25    11    12 1
    26    11    23 2
    27    12    13 1
    28    12    36 1
    29    12    37 1
    30    13    14 1
    31    13    17 1
    32    13    18 1
    33    14    15 1
    34    14    38 1
    35    15    16 1
    36    15    39 1
    37    15    40 1
    38    16    17 1
    39    16    41 1
    40    16    42 1
    41    17    20 1
    42    17    24 1
    43    18    43 1
    44    18    44 1
    45    18    45 1
    46    19    46 1
    47    19    47 1
    48    19    48 1
    49    20    21 2
    50    20    25 1
    51    21    26 1
    52    21    49 1
    53    24    50 1
    54    25    51 1
    55    26    52 1
@<TRIPOS>SUBSTRUCTURE
     1 PDN         1 TEMP              0 ****  ****    0 ROOT
