@<TRIPOS>MOLECULE
molecule
   13    12     1     0     0
SMALL
bcc


@<TRIPOS>ATOM
      1 C1           0.0000     0.0000     0.0000 c3         1 PDO       0.141400
      2 O1           1.4290     0.0000     0.0000 oh         1 PDO      -0.607800
      3 C2          -0.5100     0.0000     1.4430 c3         1 PDO      -0.081400
      4 C3          -2.0400     0.0000     1.4420 c3         1 PDO       0.141400
      5 O3          -2.5160     0.0000     2.7890 oh         1 PDO      -0.607800
      6 H11         -0.3610    -0.8850    -0.5110 h1         1 PDO       0.018700
      7 H12         -0.3610     0.8850    -0.5110 h1         1 PDO       0.018700
      8 HO1          1.7440     0.0000    -0.8890 ho         1 PDO       0.403000
      9 H21         -0.1490     0.8850     1.9540 hc         1 PDO       0.067700
     10 H22         -0.1490    -0.8850     1.9540 hc         1 PDO       0.067700
     11 H31         -2.4010     0.8850     0.9310 h1         1 PDO       0.018700
     12 H32         -2.4010    -0.8850     0.9310 h1         1 PDO       0.018700
     13 HO3         -3.4590     0.0000     2.7890 ho         1 PDO       0.403000
@<TRIPOS>BOND
     1     1     2 1
     2     1     3 1
     3     1     6 1
     4     1     7 1
     5     2     8 1
     6     3     4 1
     7     3     9 1
     8     3    10 1
     9     4     5 1
    10     4    11 1
    11     4    12 1
    12     5    13 1
@<TRIPOS>SUBSTRUCTURE
     1 PDO         1 TEMP              0 ****  ****    0 ROOT
