@<TRIPOS>MOLECULE
molecule
   28    28     1     0     0
SMALL
bcc


@<TRIPOS>ATOM
      1 N1           0.0000     0.0000     0.0000 nb         1 PDP      -0.722000
      2 C2           1.3160     0.0000     0.0000 ca         1 PDP       0.338600
      3 C2A          2.0600    -0.0060    -1.3100 c3         1 PDP      -0.121400
      4 C3           2.0270     0.0000     1.1920 ca         1 PDP      -0.000200
      5 O3           3.3830    -0.0000     1.1870 oh         1 PDP      -0.515100
      6 C4           1.3160     0.0120     2.4050 ca         1 PDP      -0.235600
      7 C4A          2.0210     0.0190     3.6980 c          1 PDP       0.578500
      8 O4A          3.2320     0.0190     3.7270 o          1 PDP      -0.598100
      9 C5          -0.0850     0.0110     2.3490 ca         1 PDP      -0.118600
     10 C6          -0.7040     0.0050     1.1160 ca         1 PDP       0.422200
     11 C5A         -0.9020     0.0180     3.6140 c3         1 PDP       0.190700
     12 O5A         -2.2910     0.0150     3.2830 os         1 PDP      -0.550200
     13 PA          -3.1020     0.0220     4.6740 p5         1 PDP       1.241800
     14 O1A         -2.7470     1.2340     5.4450 o          1 PDP      -0.792000
     15 O3A         -4.6830     0.0190     4.3760 os         1 PDP      -0.646800
     16 O2A         -2.7140    -1.2880     5.5270 o          1 PDP      -0.792000
     17 PB          -5.4260     0.0260     5.8040 p5         1 PDP       1.186900
     18 O1B         -5.0370     1.2380     6.5560 o          1 PDP      -0.861167
     19 O2B         -7.0200     0.0230     5.5790 o          1 PDP      -0.861167
     20 O3B         -5.0010    -1.2840     6.6370 o          1 PDP      -0.861167
     21 H2A1         1.3550     0.0870    -2.1270 hc         1 PDP       0.027033
     22 H2A2         2.6070    -0.9360    -1.4100 hc         1 PDP       0.027033
     23 H2A3         2.7540     0.8250    -1.3350 hc         1 PDP       0.027033
     24 HO3          3.6970    -0.8880     1.1350 ho         1 PDP       0.397000
     25 H4A          1.4570     0.0250     4.6230 h4         1 PDP       0.027200
     26 H6          -1.7860     0.0050     1.0630 h4         1 PDP       0.068100
     27 H5A1        -0.6700     0.9050     4.1890 h1         1 PDP       0.071700
     28 H5A2        -0.6690    -0.8640     4.1990 h1         1 PDP       0.071700
@<TRIPOS>BOND
     1     1     2 ar
     2     1    10 ar
     3     2     3 1
     4     2     4 ar
     5     3    21 1
     6     3    22 1
     7     3    23 1
     8     4     5 1
     9     4     6 ar
    10     5    24 1
    11     6     7 1
    12     6     9 ar
    13     7     8 2
    14     7    25 1
    15     9    10 ar
    16     9    11 1
    17    10    26 1
    18    11    12 1
    19    11    27 1
    20    11    28 1
    21    12    13 1
    22    13    14 1
    23    13    15 1
    24    13    16 1
    25    15    17 1
    26    17    18 1
    27    17    19 1
    28    17    20 1
@<TRIPOS>SUBSTRUCTURE
     1 PDP         1 TEMP              0 ****  ****    0 ROOT
