@<TRIPOS>MOLECULE
PDQ
   52    55     1     0     0
SMALL
bcc


@<TRIPOS>ATOM
      1 C1           0.0000     0.0000     0.0000 c          1 PDQ       0.674100
      2 O2          -0.6230    -0.0010     1.0440 o          1 PDQ      -0.589500
      3 C3           1.4720     0.0000     0.0000 ca         1 PDQ      -0.189600
      4 C4           2.2030     0.0000     1.1880 ca         1 PDQ      -0.008000
      5 C6           3.5700    -0.0010     1.1420 ca         1 PDQ       0.052900
      6 F7           4.2800    -0.0020     2.2910 f          1 PDQ      -0.116900
      7 C8           4.2360    -0.0020    -0.0850 ca         1 PDQ       0.043600
      8 C10          3.5190    -0.0010    -1.2750 ca         1 PDQ      -0.040300
      9 C12          2.1370    -0.0000    -1.2400 ca         1 PDQ      -0.067400
     10 N13          1.3810    -0.0000    -2.4050 n          1 PDQ       0.182000
     11 C15          0.0380     0.0000    -2.3480 c          1 PDQ       0.608500
     12 O16         -0.5900     0.0010    -3.3890 o          1 PDQ      -0.670500
     13 N17         -0.6410    -0.0060    -1.1890 n          1 PDQ      -0.292800
     14 C18          2.0520    -0.0010    -3.7060 cx         1 PDQ      -0.164300
     15 C20          2.3420     1.3560    -4.3520 cx         1 PDQ      -0.054900
     16 C23          1.2400     0.4590    -4.9200 cx         1 PDQ      -0.054900
     17 N26         -2.0060    -0.0110    -1.2140 nz         1 PDQ       0.262400
     18 C29          4.2440    -0.0010    -2.5960 c3         1 PDQ      -0.009800
     19 N33          5.6280    -0.0010    -0.1160 nh         1 PDQ      -0.385000
     20 C34          6.1710     1.1910     0.5610 c3         1 PDQ       0.132800
     21 C37          7.1150     0.6930     1.6760 c3         1 PDQ      -0.101700
     22 C39          7.4930    -0.7340     1.2030 c3         1 PDQ      -0.004400
     23 C42          6.1730    -1.2060     0.5450 c3         1 PDQ       0.143800
     24 C45          8.3580     1.5800     1.7680 c3         1 PDQ      -0.063500
     25 C47          9.2720     1.0630     2.8810 c3         1 PDQ      -0.004100
     26 N51          7.9540     2.9600     2.0690 nz         1 PDQ       0.065400
     27 H4           1.6930    -0.1030     2.1380 ha         1 PDQ       0.156000
     28 H18          2.7860    -0.7690    -3.9170 h1         1 PDQ       0.124700
     29 H20          2.0000     2.2210    -3.7960 hc         1 PDQ       0.073950
     30 H20A         3.2510     1.4090    -4.9390 hc         1 PDQ       0.073950
     31 H23          1.4760    -0.0360    -5.8540 hc         1 PDQ       0.073950
     32 H23A         0.2260     0.7750    -4.7110 hc         1 PDQ       0.073950
     33 HN26        -2.3560    -0.1540    -0.2870 hn         1 PDQ       0.240800
     34 HN2A        -2.3260    -0.7500    -1.8090 hn         1 PDQ       0.240800
     35 H29          4.0160    -0.9140    -3.1330 hc         1 PDQ       0.049033
     36 H29A         3.9260     0.8520    -3.1830 hc         1 PDQ       0.049033
     37 H29B         5.3120     0.0580    -2.4230 hc         1 PDQ       0.049033
     38 H34          5.3630     1.7680     0.9940 h1         1 PDQ       0.021700
     39 H34A         6.7260     1.7950    -0.1470 h1         1 PDQ       0.021700
     40 H37          6.5940     0.6540     2.6250 hc         1 PDQ       0.068700
     41 H39          8.2950    -0.7000     0.4760 hc         1 PDQ       0.047200
     42 H39A         7.7500    -1.3640     2.0460 hc         1 PDQ       0.047200
     43 H42          6.3730    -1.9780    -0.1880 h1         1 PDQ       0.044700
     44 H42A         5.4840    -1.5640     1.3000 h1         1 PDQ       0.044700
     45 H45          8.8890     1.5570     0.8240 hx         1 PDQ       0.098700
     46 H47         10.0380     1.8000     3.0900 hc         1 PDQ       0.043367
     47 H47A         8.6870     0.8860     3.7750 hc         1 PDQ       0.043367
     48 H47B         9.7380     0.1370     2.5650 hc         1 PDQ       0.043367
     49 HN51         7.5740     3.3830     1.2450 hn         1 PDQ       0.228467
     50 HN5A         8.7520     3.4820     2.3740 hn         1 PDQ       0.228467
     51 H263        -2.3370     0.8650    -1.5660 hn         1 PDQ       0.240800
     52 H513         7.2590     2.9550     2.7880 hn         1 PDQ       0.228467
@<TRIPOS>BOND
     1     1     2 2   
     2     1     3 1   
     3     1    13 1   
     4     3     4 ar  
     5     3     9 ar  
     6     4     5 ar  
     7     4    27 1   
     8     5     6 1   
     9     5     7 ar  
    10     7     8 ar  
    11     7    19 1   
    12     8     9 ar  
    13     8    18 1   
    14     9    10 1   
    15    10    11 1   
    16    10    14 1   
    17    11    12 2   
    18    11    13 1   
    19    13    17 1   
    20    14    15 1   
    21    14    16 1   
    22    14    28 1   
    23    15    16 1   
    24    15    29 1   
    25    15    30 1   
    26    16    31 1   
    27    16    32 1   
    28    17    33 1   
    29    17    34 1   
    30    17    51 1   
    31    18    35 1   
    32    18    36 1   
    33    18    37 1   
    34    19    20 1   
    35    19    23 1   
    36    20    21 1   
    37    20    38 1   
    38    20    39 1   
    39    21    22 1   
    40    21    24 1   
    41    21    40 1   
    42    22    23 1   
    43    22    41 1   
    44    22    42 1   
    45    23    43 1   
    46    23    44 1   
    47    24    25 1   
    48    24    26 1   
    49    24    45 1   
    50    25    46 1   
    51    25    47 1   
    52    25    48 1   
    53    26    49 1   
    54    26    50 1   
    55    26    52 1   
@<TRIPOS>SUBSTRUCTURE
     1 PDQ         1 TEMP              0 ****  ****    0 ROOT
