@<TRIPOS>MOLECULE
PDR
   39    40     1     0     0
SMALL
bcc


@<TRIPOS>ATOM
      1 CL          0.9230    1.0770    0.7900 cl        1 PDR     -0.080400
      2 C1          5.6350   -0.0440    4.6120 ca        1 PDR      0.491100
      3 C2          5.4850   -0.4740    5.9620 ca        1 PDR      0.018100
      4 C3          6.4510   -1.3740    6.4820 ca        1 PDR     -0.178000
      5 C4          7.4970   -1.8040    5.6790 ca        1 PDR      0.013800
      6 C5          7.5590   -1.3160    4.3290 ca        1 PDR      0.617600
      7 N6          6.6520   -0.4660    3.8170 nb        1 PDR     -0.715000
      8 C7          4.6590    0.8970    4.0060 ce        1 PDR     -0.033500
      9 C8          4.3590    2.0770    4.5710 c2        1 PDR     -0.140000
     10 N9          4.3550   -0.0520    6.6920 ne        1 PDR     -0.557100
     11 C10         3.1520   -0.3740    0.5160 ce        1 PDR     -0.150300
     12 C11         3.9950   -1.3350   -0.2600 ce        1 PDR      0.633900
     13 N12         5.1930   -1.6930    0.2550 nh        1 PDR     -0.463100
     14 C13         4.0920    0.4750    2.7870 cg        1 PDR     -0.097300
     15 C14         3.6410    0.0940    1.7420 ch        1 PDR     -0.170300
     16 C15         1.4820   -0.5420   -1.3180 c3        1 PDR     -0.170100
     17 C16         2.4210   -1.4940   -1.9780 c1        1 PDR      0.258700
     18 N17         3.5740   -1.8480   -1.4740 n1        1 PDR     -0.843400
     19 C18         1.9490   -0.0070   -0.0130 c2        1 PDR      0.099200
     20 C20         4.3260   -0.0230    7.9710 c2        1 PDR      0.439100
     21 C22         8.7770   -1.2850    2.2640 c3        1 PDR      0.125700
     22 O23         8.5020   -2.6670    6.0480 os        1 PDR     -0.292900
     23 C24         8.4050   -3.2080    7.3620 c3        1 PDR      0.107700
     24 H3          6.3610   -1.7400    7.5160 ha        1 PDR      0.148000
     25 H8          4.8200    2.4130    5.5080 ha        1 PDR      0.128500
     26 HN12        5.7790   -2.3350   -0.2290 hn        1 PDR      0.301700
     27 H14         5.5010   -1.3250    1.1270 hn        1 PDR      0.301700
     28 H15         1.2990    0.3050   -2.0380 hc        1 PDR      0.115700
     29 H16         0.4980   -1.0750   -1.1850 hc        1 PDR      0.115700
     30 H20         3.6300    2.7650    4.1230 ha        1 PDR      0.128500
     31 H20A        5.1410   -0.2900    8.6680 h4        1 PDR     -0.010700
     32 H20B        3.3810    0.3100    8.4410 h4        1 PDR     -0.010700
     33 H22         8.9130   -0.1770    2.2760 h1        1 PDR      0.048700
     34 H22A        9.7060   -1.8000    1.9090 h1        1 PDR      0.048700
     35 H22B        7.9010   -1.5650    1.6300 h1        1 PDR      0.048700
     36 H24         8.4750   -2.3970    8.1270 h1        1 PDR      0.048700
     37 H24A        7.4560   -3.7840    7.4850 h1        1 PDR      0.048700
     38 H24B        9.2930   -3.8870    7.4250 h1        1 PDR      0.048700
     39 O21         8.6200   -1.7920    3.5890 os        1 PDR     -0.422100
@<TRIPOS>BOND
     1    1   19 1   
     2    2    3 ar  
     3    2    7 ar  
     4    2    8 1   
     5    3    4 ar  
     6    3   10 1   
     7    4    5 ar  
     8    4   24 1   
     9    5    6 ar  
    10    5   22 1   
    11    6    7 ar  
    12    6   39 1   
    13    8    9 2   
    14    8   14 1   
    15    9   25 1   
    16    9   30 1   
    17   10   20 2   
    18   11   12 1   
    19   11   15 1   
    20   11   19 2   
    21   12   13 2   
    22   12   18 1   
    23   13   26 1   
    24   13   27 1   
    25   14   15 3   
    26   16   17 1   
    27   16   19 1   
    28   16   28 1   
    29   16   29 1   
    30   17   18 3   
    31   20   31 1   
    32   20   32 1   
    33   21   33 1   
    34   21   34 1   
    35   21   35 1   
    36   21   39 1   
    37   22   23 1   
    38   23   36 1   
    39   23   37 1   
    40   23   38 1   
@<TRIPOS>SUBSTRUCTURE
     1 PDR         1 TEMP              0 ****  ****    0 ROOT
