@<TRIPOS>MOLECULE
molecule
   61    65     1     0     0
SMALL
bcc


@<TRIPOS>ATOM
      1 O14          0.0000     0.0000     0.0000 o          1 PDS      -0.555500
      2 C6           1.2190     0.0000     0.0000 c          1 PDS       0.696700
      3 N13          2.0600     0.0000     1.0730 ns         1 PDS      -0.607500
      4 C12          3.3670     0.0160     0.6870 c          1 PDS       0.696700
      5 O20          4.3600     0.0100     1.3960 o          1 PDS      -0.558500
      6 C2           2.0830     0.0140    -1.2080 cc         1 PDS      -0.049200
      7 C5           3.3650     0.0280    -0.7980 cd         1 PDS      -0.053200
      8 C11          4.5680     0.0310    -1.5700 cd         1 PDS      -0.112200
      9 C18          5.3060    -1.0960    -2.0280 ca         1 PDS      -0.060800
     10 C24          5.1440    -2.4900    -1.9050 ca         1 PDS      -0.085000
     11 C29          6.0840    -3.3420    -2.4970 ca         1 PDS      -0.154000
     12 C31          7.1700    -2.8260    -3.2010 ca         1 PDS      -0.114000
     13 C28          7.3510    -1.4460    -3.3370 ca         1 PDS      -0.143000
     14 C23          6.4030    -0.6070    -2.7400 ca         1 PDS      -0.043200
     15 N25          6.3260     0.7670    -2.7100 na         1 PDS      -0.177400
     16 C19          5.2210     1.1630    -2.0040 cc         1 PDS      -0.010300
     17 C26          4.9140     2.5960    -1.8270 c3         1 PDS      -0.040900
     18 C1           1.5520     0.0330    -2.5360 cc         1 PDS      -0.117200
     19 C3           1.2100     1.1740    -3.3180 ca         1 PDS      -0.060800
     20 C8           1.2620     2.5650    -3.0960 ca         1 PDS      -0.087000
     21 C16          0.8340     3.4340    -4.1070 ca         1 PDS      -0.154000
     22 C7           0.7310     0.7070    -4.5440 ca         1 PDS      -0.040200
     23 C15          0.3000     1.5640    -5.5640 ca         1 PDS      -0.141000
     24 C21          0.3620     2.9380    -5.3200 ca         1 PDS      -0.116000
     25 N9           0.7850    -0.6680    -4.5020 na         1 PDS      -0.058400
     26 C4           1.2780    -1.0850    -3.2940 cd         1 PDS      -0.005300
     27 C10          1.4420    -2.5210    -2.9760 c3         1 PDS      -0.038900
     28 C17          0.3760    -1.5450    -5.5800 c3         1 PDS       0.044300
     29 C22         -1.1020    -1.9270    -5.4800 c3         1 PDS      -0.109400
     30 C27         -1.5390    -2.8580    -6.6050 c3         1 PDS       0.170800
     31 N30         -2.9220    -3.2360    -6.4960 n3         1 PDS      -0.725600
     32 C32         -3.3030    -4.1890    -7.5500 c3         1 PDS       0.148600
     33 C33         -3.8060    -2.0610    -6.5550 c3         1 PDS       0.148600
     34 HN13         1.7560    -0.0110     2.0260 hn         1 PDS       0.344500
     35 H24          4.3020    -2.8980    -1.3590 ha         1 PDS       0.130000
     36 H29          5.9660    -4.4150    -2.4060 ha         1 PDS       0.129000
     37 H31          7.8850    -3.5040    -3.6500 ha         1 PDS       0.129000
     38 H28          8.1940    -1.0410    -3.8830 ha         1 PDS       0.132000
     39 HN25         6.9830     1.3870    -3.1400 hn         1 PDS       0.296700
     40 H261         4.0910     2.7060    -1.1320 hc         1 PDS       0.055700
     41 H262         5.7870     3.1070    -1.4380 hc         1 PDS       0.055700
     42 H263         4.6400     3.0280    -2.7820 hc         1 PDS       0.055700
     43 H8           1.6280     2.9570    -2.1550 ha         1 PDS       0.129000
     44 H16          0.8720     4.5040    -3.9440 ha         1 PDS       0.129000
     45 H15         -0.0670     1.1760    -6.5060 ha         1 PDS       0.131000
     46 H21          0.0360     3.6300    -6.0880 ha         1 PDS       0.128000
     47 H101         2.0820    -2.9850    -3.7170 hc         1 PDS       0.055700
     48 H102         0.4730    -3.0050    -2.9830 hc         1 PDS       0.055700
     49 H103         1.8910    -2.6260    -1.9960 hc         1 PDS       0.055700
     50 H171         0.5460    -1.0440    -6.5250 h1         1 PDS       0.058200
     51 H172         0.9760    -2.4470    -5.5460 h1         1 PDS       0.058200
     52 H221        -1.2720    -2.4210    -4.5300 hc         1 PDS       0.061200
     53 H222        -1.7000    -1.0250    -5.5180 hc         1 PDS       0.061200
     54 H271        -0.9280    -3.7520    -6.5780 h1         1 PDS       0.027700
     55 H272        -1.3870    -2.3570    -7.5530 h1         1 PDS       0.027700
     56 H321        -4.3280    -4.5050    -7.3970 h1         1 PDS       0.034033
     57 H322        -2.6500    -5.0530    -7.5090 h1         1 PDS       0.034033
     58 H323        -3.2120    -3.7130    -8.5180 h1         1 PDS       0.034033
     59 H331        -3.8730    -1.6090    -5.5730 h1         1 PDS       0.034033
     60 H332        -3.4030    -1.3410    -7.2570 h1         1 PDS       0.034033
     61 H333        -4.7930    -2.3680    -6.8800 h1         1 PDS       0.034033
@<TRIPOS>BOND
     1     1     2 2
     2     2     6 1
     3     2     3 1
     4     3     4 1
     5     3    34 1
     6     4     7 1
     7     4     5 2
     8     6    18 1
     9     6     7 2
    10     7     8 1
    11     8     9 1
    12     8    16 2
    13     9    10 ar
    14     9    14 ar
    15    10    11 ar
    16    10    35 1
    17    11    12 ar
    18    11    36 1
    19    12    13 ar
    20    12    37 1
    21    13    14 ar
    22    13    38 1
    23    14    15 1
    24    15    16 1
    25    15    39 1
    26    16    17 1
    27    17    40 1
    28    17    41 1
    29    17    42 1
    30    18    19 1
    31    18    26 2
    32    19    22 ar
    33    19    20 ar
    34    20    21 ar
    35    20    43 1
    36    21    24 ar
    37    21    44 1
    38    22    23 ar
    39    22    25 1
    40    23    24 ar
    41    23    45 1
    42    24    46 1
    43    25    28 1
    44    25    26 1
    45    26    27 1
    46    27    47 1
    47    27    48 1
    48    27    49 1
    49    28    29 1
    50    28    50 1
    51    28    51 1
    52    29    30 1
    53    29    52 1
    54    29    53 1
    55    30    31 1
    56    30    54 1
    57    30    55 1
    58    31    33 1
    59    31    32 1
    60    32    56 1
    61    32    57 1
    62    32    58 1
    63    33    59 1
    64    33    60 1
    65    33    61 1
@<TRIPOS>SUBSTRUCTURE
     1 PDS         1 TEMP              0 ****  ****    0 ROOT
