@<TRIPOS>MOLECULE
PDT
   13    12     1     0     0
SMALL
bcc


@<TRIPOS>ATOM
      1 C2          0.0060    0.0000   -0.0080 c3        1 PDT     -0.065400
      2 C1          1.5150   -0.0000    0.0060 c3        1 PDT      0.007700
      3 S1          2.0180   -0.0000    1.7040 sh        1 PDT     -0.369900
      4 C3         -0.5110   -0.0000   -1.4260 c3        1 PDT      0.007700
      5 S2         -2.2800    0.0010   -1.3330 sh        1 PDT     -0.369900
      6 H21        -0.3780    0.9060    0.5350 hc        1 PDT      0.074700
      7 H22        -0.3780   -0.9050    0.5360 hc        1 PDT      0.074700
      8 H11         1.9110   -0.9030   -0.5180 h1        1 PDT      0.059700
      9 H12         1.9120    0.9030   -0.5180 h1        1 PDT      0.059700
     10 HS1         3.3280   -0.0000    1.5310 hs        1 PDT      0.199800
     11 H31        -0.1490    0.9020   -1.9750 h1        1 PDT      0.059700
     12 H32        -0.1510   -0.9040   -1.9740 h1        1 PDT      0.059700
     13 HS2        -2.5540    0.0000   -2.6250 hs        1 PDT      0.199800
@<TRIPOS>BOND
     1    1    2 1   
     2    1    4 1   
     3    1    6 1   
     4    1    7 1   
     5    2    3 1   
     6    2    8 1   
     7    2    9 1   
     8    3   10 1   
     9    4    5 1   
    10    4   11 1   
    11    4   12 1   
    12    5   13 1   
@<TRIPOS>SUBSTRUCTURE
     1 PDT         1 TEMP              0 ****  ****    0 ROOT
