@<TRIPOS>MOLECULE
molecule
   13    12     1     0     0
SMALL
bcc


@<TRIPOS>ATOM
      1 C2           0.0000     0.0000     0.0000 c3         1 PDT      -0.050400
      2 C1           1.5300     0.0000     0.0000 c3         1 PDT       0.042700
      3 S1           2.1350     0.0000     1.7100 sh         1 PDT      -0.420900
      4 C3          -0.5100     0.0000    -1.4420 c3         1 PDT       0.042700
      5 S2          -2.3240    -0.0000    -1.4420 sh         1 PDT      -0.420900
      6 H21         -0.3610     0.8840     0.5110 hc         1 PDT       0.072700
      7 H22         -0.3610    -0.8840     0.5110 hc         1 PDT       0.072700
      8 H11          1.8910    -0.8840    -0.5110 h1         1 PDT       0.055700
      9 H12          1.8910     0.8840    -0.5110 h1         1 PDT       0.055700
     10 HS1          3.4620     0.0000     1.7100 hs         1 PDT       0.218800
     11 H31         -0.1490    -0.8840    -1.9530 h1         1 PDT       0.055700
     12 H32         -0.1490     0.8840    -1.9530 h1         1 PDT       0.055700
     13 HS2         -2.7660     0.0000    -2.6940 hs         1 PDT       0.218800
@<TRIPOS>BOND
     1     1     2 1
     2     1     4 1
     3     1     6 1
     4     1     7 1
     5     2     3 1
     6     2     8 1
     7     2     9 1
     8     3    10 1
     9     4     5 1
    10     4    11 1
    11     4    12 1
    12     5    13 1
@<TRIPOS>SUBSTRUCTURE
     1 PDT         1 TEMP              0 ****  ****    0 ROOT
