@<TRIPOS>MOLECULE
PDX
   30    30     1     0     0
SMALL
bcc


@<TRIPOS>ATOM
      1 C1          0.1580    0.6190   -0.1710 c3        1 PDX      0.296900
      2 C2          1.6450    0.2190    0.0420 c3        1 PDX      0.175100
      3 C3          2.0080   -0.0480    1.5250 c3        1 PDX      0.201100
      4 C4          1.3240    1.0040    2.4340 c3        1 PDX      0.098100
      5 C5         -0.1750    1.0870    2.1350 c3        1 PDX      0.107100
      6 C6         -0.8630    2.1390    3.0050 c3        1 PDX      0.141400
      7 O1         -0.7400   -0.4660   -0.1010 oh        1 PDX     -0.656800
      8 O2          1.8690   -0.9420   -0.6950 os        1 PDX     -0.604500
      9 O3          3.3860    0.0930    1.6790 os        1 PDX     -0.614500
     10 O4          1.4400    0.6840    3.8110 oh        1 PDX     -0.648800
     11 O5         -0.3630    1.5200    0.7860 os        1 PDX     -0.444600
     12 O6         -2.2570    2.2110    2.7570 oh        1 PDX     -0.636800
     13 O1S         2.9480   -1.7680   -2.7940 o         1 PDX     -0.757533
     14 O2S         0.6010   -1.5710   -2.6090 o         1 PDX     -0.757533
     15 O3S         1.9250    0.3670   -2.7720 o         1 PDX     -0.757533
     16 O1X         4.2490   -0.2670    3.8860 o         1 PDX     -0.756867
     17 O2X         5.6480   -0.7730    2.0610 o         1 PDX     -0.756867
     18 O3X         3.8110   -2.1790    2.6080 o         1 PDX     -0.756867
     19 S           1.8610   -0.9860   -2.4240 s6        1 PDX      1.695300
     20 S'          4.3950   -0.9160    2.6470 s6        1 PDX      1.703300
     21 H1          0.0430    1.1550   -1.1590 h2        1 PDX      0.078700
     22 H2          2.2910    1.0580   -0.3420 h1        1 PDX      0.060700
     23 H3          1.6800   -1.0860    1.8130 h1        1 PDX      0.065700
     24 H4          1.8060    2.0050    2.2480 h1        1 PDX      0.038700
     25 H5         -0.6590    0.0830    2.2770 h1        1 PDX      0.072700
     26 H6C1       -0.7540    1.8590    4.0850 h1        1 PDX      0.044200
     27 H6C2       -0.4090    3.1480    2.8200 h1        1 PDX      0.044200
     28 HA         -0.3090   -1.2220   -0.5360 ho        1 PDX      0.456000
     29 HB          2.3730    0.4680    3.9750 ho        1 PDX      0.455000
     30 H6         -2.3780    2.0890    1.8060 ho        1 PDX      0.416000
@<TRIPOS>BOND
     1    1    2 1   
     2    1    7 1   
     3    1   11 1   
     4    1   21 1   
     5    2    3 1   
     6    2    8 1   
     7    2   22 1   
     8    3    4 1   
     9    3    9 1   
    10    3   23 1   
    11    4    5 1   
    12    4   10 1   
    13    4   24 1   
    14    5    6 1   
    15    5   11 1   
    16    5   25 1   
    17    6   12 1   
    18    6   26 1   
    19    6   27 1   
    20    7   28 1   
    21    8   19 1   
    22    9   20 1   
    23   10   29 1   
    24   12   30 1   
    25   13   19 1   
    26   14   19 1   
    27   15   19 1   
    28   16   20 1   
    29   17   20 1   
    30   18   20 1   
@<TRIPOS>SUBSTRUCTURE
     1 PDX         1 TEMP              0 ****  ****    0 ROOT
