@<TRIPOS>MOLECULE
molecule
   30    30     1     0     0
SMALL
bcc


@<TRIPOS>ATOM
      1 C1           0.0000     0.0000     0.0000 c3         1 PDX       0.301900
      2 C2           1.5290     0.0000     0.0000 c3         1 PDX       0.145100
      3 C3           2.0290     0.0000     1.4490 c3         1 PDX       0.156100
      4 C4           1.3760     1.1710     2.1910 c3         1 PDX       0.112100
      5 C5          -0.1420     1.0820     2.0270 c3         1 PDX       0.126100
      6 C6          -0.8060     2.2260     2.7940 c3         1 PDX       0.143400
      7 O1          -0.4740    -1.1540     0.6970 oh         1 PDX      -0.607800
      8 O2           2.0080    -1.1650    -0.6720 os         1 PDX      -0.516500
      9 O3           3.4490     0.1500     1.4670 os         1 PDX      -0.556500
     10 O4           1.7110     1.1050     3.5780 oh         1 PDX      -0.575800
     11 O5          -0.4840     1.1750     0.6450 os         1 PDX      -0.417600
     12 O6          -2.2240     2.1430     2.6430 oh         1 PDX      -0.603800
     13 O1S          2.8010    -1.9180    -2.7500 o          1 PDX      -0.747867
     14 O2S          1.4260     0.1850    -2.5020 o          1 PDX      -0.747867
     15 O3S          3.7010     0.0880    -1.9290 o          1 PDX      -0.747867
     16 O1X          3.1640    -1.2370     3.3370 o          1 PDX      -0.739533
     17 O2X          5.4150    -0.8560     2.2630 o          1 PDX      -0.739533
     18 O3X          3.7950    -2.2750     1.3290 o          1 PDX      -0.739533
     19 S            2.4240    -0.7290    -2.0690 s6         1 PDX       1.554300
     20 S'           4.0100    -1.0530     2.2110 s6         1 PDX       1.550300
     21 H1          -0.3580    -0.0200    -1.0220 h2         1 PDX       0.096700
     22 H2           1.8890     0.8880    -0.5050 h1         1 PDX       0.106700
     23 H3           1.7510    -0.9310     1.9270 h1         1 PDX       0.133700
     24 H4           1.7300     2.1050     1.7720 h1         1 PDX       0.037700
     25 H5          -0.4880     0.1330     2.4170 h1         1 PDX       0.088700
     26 H6C1        -0.5500     2.1530     3.8440 h1         1 PDX       0.021200
     27 H6C2        -0.4570     3.1740     2.4030 h1         1 PDX       0.021200
     28 HA          -1.1750    -1.5510     0.2080 ho         1 PDX       0.389000
     29 HB           2.2260     1.8590     3.8130 ho         1 PDX       0.382000
     30 H6          -2.6350     2.8230     3.1510 ho         1 PDX       0.374000
@<TRIPOS>BOND
     1     1     2 1
     2     1     7 1
     3     1    11 1
     4     1    21 1
     5     2     3 1
     6     2     8 1
     7     2    22 1
     8     3     4 1
     9     3     9 1
    10     3    23 1
    11     4     5 1
    12     4    10 1
    13     4    24 1
    14     5     6 1
    15     5    11 1
    16     5    25 1
    17     6    12 1
    18     6    26 1
    19     6    27 1
    20     7    28 1
    21     8    19 1
    22     9    20 1
    23    10    29 1
    24    12    30 1
    25    13    19 1
    26    14    19 1
    27    15    19 1
    28    16    20 1
    29    17    20 1
    30    18    20 1
@<TRIPOS>SUBSTRUCTURE
     1 PDX         1 TEMP              0 ****  ****    0 ROOT
