@<TRIPOS>MOLECULE
molecule
   53    56     1     0     0
SMALL
bcc


@<TRIPOS>ATOM
      1 C25          0.0000     0.0000     0.0000 c3         1 PDY      -0.097400
      2 C26          1.5320     0.0000     0.0000 c3         1 PDY      -0.073400
      3 C23          2.0360     0.0000     1.4460 c3         1 PDY       0.153800
      4 N12          1.5290    -1.1900     2.1420 n7         1 PDY      -0.812200
      5 C22          0.0620    -1.1870     2.1960 c3         1 PDY       0.144800
      6 C15         -0.5020    -1.2220     0.7730 c3         1 PDY       0.244500
      7 N10         -1.9660    -1.1990     0.8260 nu         1 PDY      -0.903900
      8 C4          -2.6720    -2.3790     0.9870 cc         1 PDY       0.741200
      9 C3          -4.0670    -2.3450     1.1420 cc         1 PDY      -0.333600
     10 C14         -4.8020    -1.0300     1.1320 c3         1 PDY      -0.028800
     11 N6          -2.0310    -3.5360     0.9910 nd         1 PDY      -0.777000
     12 C5          -2.6950    -4.6910     1.1460 cd         1 PDY       0.454500
     13 C8          -2.2760    -6.0130     1.1870 cc         1 PDY      -0.398600
     14 C11         -3.4020    -6.8060     1.3720 cc         1 PDY       0.417500
     15 N7          -4.4600    -6.0320     1.4420 nd         1 PDY      -0.578100
     16 N2          -4.0550    -4.6990     1.3050 na         1 PDY      -0.005800
     17 C1          -4.7510    -3.5170     1.3000 cd         1 PDY       0.316300
     18 N9          -6.1220    -3.5100     1.4540 nu         1 PDY      -0.686000
     19 C13         -6.9300    -4.2180     0.5560 ca         1 PDY       0.146600
     20 C17         -8.2930    -4.3350     0.7920 ca         1 PDY      -0.134500
     21 C20         -9.0900    -5.0330    -0.0930 ca         1 PDY      -0.154500
     22 C18         -6.3690    -4.7990    -0.5740 ca         1 PDY      -0.134500
     23 C19         -7.1670    -5.4970    -1.4580 ca         1 PDY      -0.154500
     24 C16         -8.5290    -5.6190    -1.2190 ca         1 PDY       0.111100
     25 O21         -9.3130    -6.3060    -2.0910 os         1 PDY      -0.332900
     26 C24         -8.6690    -6.8820    -3.2280 c3         1 PDY       0.136400
     27 C27         -9.7050    -7.6110    -4.0870 c3         1 PDY      -0.092100
     28 H25         -0.3610     0.9030     0.4780 hc         1 PDY       0.043200
     29 H25A        -0.3610    -0.0450    -1.0200 hc         1 PDY       0.043200
     30 H26          1.8920     0.8860    -0.5080 hc         1 PDY       0.053200
     31 H26A         1.8920    -0.8860    -0.5080 hc         1 PDY       0.053200
     32 H23          1.6820     0.8910     1.9500 h1         1 PDY       0.031700
     33 H23A         3.1190    -0.0160     1.4480 h1         1 PDY       0.031700
     34 HN12         1.8970    -1.2140     3.0730 hn         1 PDY       0.357800
     35 H22         -0.2780    -0.2890     2.6960 h1         1 PDY       0.039700
     36 H22A        -0.2800    -2.0600     2.7390 h1         1 PDY       0.039700
     37 H15         -0.1680    -2.1240     0.2750 h1         1 PDY       0.101700
     38 HN10        -2.4570    -0.3340     0.7130 hn         1 PDY       0.447800
     39 H14         -4.4430    -0.4100     1.9440 hc         1 PDY       0.045367
     40 H14A        -4.6280    -0.5270     0.1880 hc         1 PDY       0.045367
     41 H14B        -5.8640    -1.2090     1.2560 hc         1 PDY       0.045367
     42 H8          -1.2550    -6.3640     1.0930 ha         1 PDY       0.168000
     43 H11         -3.4060    -7.8870     1.4450 h4         1 PDY       0.057800
     44 HN9         -6.5360    -3.0340     2.2310 hn         1 PDY       0.461800
     45 H17         -8.7320    -3.8780     1.6710 ha         1 PDY       0.136500
     46 H20        -10.1530    -5.1260     0.0920 ha         1 PDY       0.141000
     47 H18         -5.3060    -4.7040    -0.7610 ha         1 PDY       0.136500
     48 H19         -6.7300    -5.9520    -2.3390 ha         1 PDY       0.141000
     49 H24         -8.2010    -6.0990    -3.8130 h1         1 PDY       0.033700
     50 H24A        -7.9140    -7.5850    -2.8980 h1         1 PDY       0.033700
     51 H27         -9.2160    -8.0480    -4.9490 hc         1 PDY       0.047033
     52 H27A       -10.1730    -8.3930    -3.5020 hc         1 PDY       0.047033
     53 H27B       -10.4590    -6.9070    -4.4180 hc         1 PDY       0.047033
@<TRIPOS>BOND
     1     1     2 1
     2     1     6 1
     3     2     3 1
     4     3     4 1
     5     4     5 1
     6     5     6 1
     7     6     7 1
     8     7     8 1
     9     8     9 1
    10     8    11 2
    11     9    10 1
    12     9    17 2
    13    11    12 1
    14    12    13 2
    15    12    16 1
    16    13    14 1
    17    14    15 2
    18    15    16 1
    19    16    17 1
    20    17    18 1
    21    18    19 1
    22    19    20 ar
    23    19    22 ar
    24    20    21 ar
    25    21    24 ar
    26    22    23 ar
    27    23    24 ar
    28    24    25 1
    29    25    26 1
    30    26    27 1
    31     1    28 1
    32     1    29 1
    33     2    30 1
    34     2    31 1
    35     3    32 1
    36     3    33 1
    37     4    34 1
    38     5    35 1
    39     5    36 1
    40     6    37 1
    41     7    38 1
    42    10    39 1
    43    10    40 1
    44    10    41 1
    45    13    42 1
    46    14    43 1
    47    18    44 1
    48    20    45 1
    49    21    46 1
    50    22    47 1
    51    23    48 1
    52    26    49 1
    53    26    50 1
    54    27    51 1
    55    27    52 1
    56    27    53 1
@<TRIPOS>SUBSTRUCTURE
     1 PDY         1 TEMP              0 ****  ****    0 ROOT
