@<TRIPOS>MOLECULE
molecule
   35    37     1     0     0
SMALL
bcc


@<TRIPOS>ATOM
      1 C1           0.0000     0.0000     0.0000 ca         1 PDZ      -0.094500
      2 C2           1.3820     0.0000     0.0000 ca         1 PDZ      -0.159000
      3 C3           2.0770     0.0000     1.1960 ca         1 PDZ      -0.094500
      4 C4           1.3890     0.0000     2.3950 ca         1 PDZ      -0.175000
      5 C5           0.0020    -0.0000     2.3970 ca         1 PDZ       0.134100
      6 C6          -0.6910    -0.0000     1.1950 ca         1 PDZ      -0.175000
      7 O7          -0.6760    -0.0010     3.5750 os         1 PDZ      -0.231200
      8 C8          -2.0350    -0.0010     3.5280 ca         1 PDZ       0.069100
      9 C9          -2.7300    -1.2020     3.5050 ca         1 PDZ       0.037400
     10 C10         -4.1120    -1.1980     3.4580 ca         1 PDZ      -0.130000
     11 C11         -4.8020    -0.0010     3.4360 ca         1 PDZ      -0.086000
     12 C12         -4.1130     1.1980     3.4600 ca         1 PDZ      -0.107300
     13 C13         -2.7310     1.2020     3.5110 ca         1 PDZ       0.149900
     14 C14         -4.8700     2.5010     3.4350 c3         1 PDZ      -0.039400
     15 Cl15        -1.8650    -2.7060     3.5320 cl         1 PDZ      -0.072400
     16 F16         -2.0590     2.3720     3.5400 f          1 PDZ      -0.118900
     17 C17         -4.9670     2.9980     2.0150 cc         1 PDZ       0.337600
     18 C18         -5.6330     4.2050     1.7430 cc         1 PDZ      -0.184600
     19 C19         -5.7040     4.6280     0.4460 cd         1 PDZ      -0.215200
     20 C20         -5.1000     3.8220    -0.5420 c          1 PDZ       0.637700
     21 N21         -4.4840     2.6810    -0.1780 ns         1 PDZ      -0.223900
     22 N22         -4.4280     2.3080     1.0490 nd         1 PDZ      -0.443300
     23 O23         -5.1360     4.1560    -1.7170 o          1 PDZ      -0.635500
     24 H1          -0.5410     0.0000    -0.9380 ha         1 PDZ       0.132500
     25 H2           1.9220     0.0000    -0.9390 ha         1 PDZ       0.131000
     26 H3           3.1600     0.0000     1.1930 ha         1 PDZ       0.132500
     27 H4           1.9330    -0.0000     3.3320 ha         1 PDZ       0.143000
     28 H6          -1.7750    -0.0000     1.1950 ha         1 PDZ       0.143000
     29 H10         -4.6550    -2.1350     3.4390 ha         1 PDZ       0.153000
     30 H11         -5.8850    -0.0020     3.3970 ha         1 PDZ       0.146000
     31 H14         -5.8650     2.3480     3.8330 hc         1 PDZ       0.072200
     32 H14A        -4.3480     3.2330     4.0390 hc         1 PDZ       0.072200
     33 H18         -6.0800     4.7850     2.5420 ha         1 PDZ       0.148000
     34 H19         -6.2070     5.5520     0.1860 ha         1 PDZ       0.174000
     35 HN21        -4.0550     2.1120    -0.8810 hn         1 PDZ       0.372500
@<TRIPOS>BOND
     1     1     2 ar
     2     1     6 ar
     3     2     3 ar
     4     3     4 ar
     5     4     5 ar
     6     5     6 ar
     7     5     7 1
     8     7     8 1
     9     8     9 ar
    10     8    13 ar
    11     9    10 ar
    12     9    15 1
    13    10    11 ar
    14    11    12 ar
    15    12    13 ar
    16    12    14 1
    17    13    16 1
    18    14    17 1
    19    17    18 1
    20    17    22 2
    21    18    19 2
    22    19    20 1
    23    20    21 1
    24    20    23 2
    25    21    22 1
    26     1    24 1
    27     2    25 1
    28     3    26 1
    29     4    27 1
    30     6    28 1
    31    10    29 1
    32    11    30 1
    33    14    31 1
    34    14    32 1
    35    18    33 1
    36    19    34 1
    37    21    35 1
@<TRIPOS>SUBSTRUCTURE
     1 PDZ         1 TEMP              0 ****  ****    0 ROOT
