@<TRIPOS>MOLECULE
PE0
   17    18     1     0     0
SMALL
bcc


@<TRIPOS>ATOM
      1 C1         -0.0100   -0.0240   -0.0250 ca        1 PE0      0.164500
      2 C4          1.4720   -0.0770   -0.0580 c         1 PE0      0.622000
      3 O4          2.1870   -0.1300   -1.0670 o         1 PE0     -0.576500
      4 N2          2.1130   -0.0750    1.1970 n         1 PE0     -0.512400
      5 C3          1.3810    0.0150    2.3970 cc        1 PE0      0.692800
      6 N6          2.1130    0.1480    3.5940 nh        1 PE0     -0.894800
      7 N1          0.0370    0.0350    2.4580 nd        1 PE0     -0.739700
      8 C2         -0.6710    0.0360    1.2570 ca        1 PE0      0.568000
      9 N3         -2.0570    0.0880    1.3150 nb        1 PE0     -0.624000
     10 C6         -2.6960    0.0800    0.1490 ca        1 PE0      0.333900
     11 C5         -2.0250    0.0230   -1.1150 ca        1 PE0      0.243900
     12 N4         -0.6960   -0.0290   -1.2030 nb        1 PE0     -0.552000
     13 HN2         3.1100   -0.0520    1.2040 hn        1 PE0      0.338500
     14 HN61        2.9770   -0.3420    3.6380 hn        1 PE0      0.427800
     15 HN62        1.5680    0.1120    4.4290 hn        1 PE0      0.427800
     16 H6         -3.8000    0.1220    0.1980 h4        1 PE0      0.039100
     17 H5         -2.5900    0.0190   -2.0610 h4        1 PE0      0.042100
@<TRIPOS>BOND
     1    1    2 1
     2    1    8 ar
     3    1   12 ar
     4    2    3 2
     5    2    4 1
     6    4    5 1
     7    4   13 1
     8    5    6 1
     9    5    7 2
    10    6   14 1
    11    6   15 1
    12    7    8 1
    13    8    9 ar
    14    9   10 ar
    15   10   11 ar
    16   10   16 1
    17   11   12 ar
    18   11   17 1
@<TRIPOS>SUBSTRUCTURE
     1 PE0         1 TEMP              0 ****  ****    0 ROOT
