@<TRIPOS>MOLECULE
molecule
   34    35     1     0     0
SMALL
bcc


@<TRIPOS>ATOM
      1 C2           0.0000     0.0000     0.0000 cc         1 PE2       0.447800
      2 C4           2.0040     0.0000     1.1450 cd         1 PE2       0.017800
      3 C5           1.3220    -0.0020     2.3670 cc         1 PE2       0.304800
      4 C4'          6.3860    -2.8770    -1.1630 c3         1 PE2       0.144900
      5 O4'          7.4700    -2.8740    -2.0940 oh         1 PE2      -0.619800
      6 C3'          5.5700    -0.7130    -2.1070 c3         1 PE2       0.144900
      7 O3'          4.4500    -1.3870    -2.6840 oh         1 PE2      -0.619800
      8 C2'          5.9970    -1.4360    -0.8290 c3         1 PE2      -0.069700
      9 C12          4.8370    -1.4380     0.1670 c3         1 PE2      -0.097400
     10 N9           3.3370     0.0010     1.4550 na         1 PE2      -0.153900
     11 N3           1.3130     0.0000     0.0000 nd         1 PE2      -0.541100
     12 N2          -0.6670     0.0000    -1.2000 nz         1 PE2      -0.725600
     13 N1          -0.7210     0.0040     1.1560 ns         1 PE2      -0.468400
     14 C6          -0.0930    -0.0020     2.3520 c          1 PE2       0.625000
     15 O6          -0.7280    -0.0040     3.3920 o          1 PE2      -0.526500
     16 N7           2.2560    -0.0020     3.3500 nc         1 PE2      -0.608000
     17 C8           3.4420    -0.0010     2.8160 cd         1 PE2       0.493400
     18 H4'1         5.5370    -3.3890    -1.5990 h1         1 PE2       0.035950
     19 H4'2         6.6900    -3.3880    -0.2570 h1         1 PE2       0.035950
     20 HO4'         7.9020    -3.7120    -2.0750 ho         1 PE2       0.414000
     21 H3'1         5.2960     0.3080    -1.8720 h1         1 PE2       0.035950
     22 H3'2         6.3930    -0.7130    -2.8120 h1         1 PE2       0.035950
     23 HO3'         4.4110    -1.1990    -3.6070 ho         1 PE2       0.414000
     24 H2'          6.8470    -0.9250    -0.3920 hc         1 PE2       0.073700
     25 H121         5.1400    -1.9490     1.0730 hc         1 PE2       0.064700
     26 H122         3.9880    -1.9500    -0.2690 hc         1 PE2       0.064700
     27 H1'1         5.2980     0.5140     0.9380 h1         1 PE2       0.083200
     28 H1'2         4.1460     0.5150    -0.4040 h1         1 PE2       0.083200
     29 HN21        -0.0170     0.1620    -1.9440 hn         1 PE2       0.477133
     30 HN22        -1.3580     0.7240    -1.1980 hn         1 PE2       0.477133
     31 HN1         -1.7210     0.0040     1.1190 hn         1 PE2       0.349500
     32 H8           4.3990     0.0500     3.3210 h5         1 PE2       0.101100
     33 C1'          4.4480     0.0030     0.5020 c3         1 PE2       0.029300
     34 H23         -1.1110    -0.8870    -1.3350 hn         1 PE2       0.477133
@<TRIPOS>BOND
     1     1    11 2
     2     1    12 1
     3     1    13 1
     4     2     3 2
     5     2    10 1
     6     2    11 1
     7     3    14 1
     8     3    16 1
     9     4     5 1
    10     4     8 1
    11     4    18 1
    12     4    19 1
    13     5    20 1
    14     6     7 1
    15     6     8 1
    16     6    21 1
    17     6    22 1
    18     7    23 1
    19     8     9 1
    20     8    24 1
    21     9    33 1
    22     9    25 1
    23     9    26 1
    24    33    10 1
    25    33    27 1
    26    33    28 1
    27    10    17 1
    28    12    29 1
    29    12    30 1
    30    13    14 1
    31    13    31 1
    32    14    15 2
    33    16    17 2
    34    17    32 1
    35    34    12 1
@<TRIPOS>SUBSTRUCTURE
     1 PE2         1 TEMP              0 ****  ****    0 ROOT
