@<TRIPOS>MOLECULE
PE2
   34    35     1     0     0
SMALL
bcc


@<TRIPOS>ATOM
      1 C2           0.0000     0.0000     0.0000 cc         1 PE2      -0.028200
      2 C4           2.0040     0.0000     1.1450 cd         1 PE2      -0.238200
      3 C5           1.3220    -0.0020     2.3670 cc         1 PE2       0.275800
      4 C4'          6.3860    -2.8770    -1.1630 c3         1 PE2       0.225400
      5 O4'          7.4700    -2.8740    -2.0940 oh         1 PE2      -0.602300
      6 C3'          5.5700    -0.7130    -2.1070 c3         1 PE2       0.225400
      7 O3'          4.4500    -1.3870    -2.6840 oh         1 PE2      -0.602300
      8 C2'          5.9970    -1.4360    -0.8290 c3         1 PE2      -0.064700
      9 C12          4.8370    -1.4380     0.1670 c3         1 PE2      -0.035400
     10 N9           3.3370     0.0010     1.4550 na         1 PE2       0.342100
     11 N3           1.3130     0.0000     0.0000 nd         1 PE2      -0.329100
     12 N2          -0.6670     0.0000    -1.2000 nz         1 PE2       0.224400
     13 N1          -0.7210     0.0040     1.1560 ns         1 PE2      -0.004400
     14 C6          -0.0930    -0.0020     2.3520 c          1 PE2       0.523000
     15 O6          -0.7280    -0.0040     3.3920 o          1 PE2      -0.566500
     16 N7           2.2560    -0.0020     3.3500 nc         1 PE2      -0.495000
     17 C8           3.4420    -0.0010     2.8160 cd         1 PE2       0.308400
     18 H4'1         5.5370    -3.3890    -1.5990 h1         1 PE2      -0.000300
     19 H4'2         6.6900    -3.3880    -0.2570 h1         1 PE2      -0.000300
     20 HO4'         7.9020    -3.7120    -2.0750 ho         1 PE2       0.402000
     21 H3'1         5.2960     0.3080    -1.8720 h1         1 PE2      -0.000300
     22 H3'2         6.3930    -0.7130    -2.8120 h1         1 PE2      -0.000300
     23 HO3'         4.4110    -1.1990    -3.6070 ho         1 PE2       0.402000
     24 H2'          6.8470    -0.9250    -0.3920 hc         1 PE2       0.045700
     25 H121         5.1400    -1.9490     1.0730 hc         1 PE2       0.032700
     26 H122         3.9880    -1.9500    -0.2690 hc         1 PE2       0.032700
     27 H1'1         5.2980     0.5140     0.9380 h1         1 PE2       0.057200
     28 H1'2         4.1460     0.5150    -0.4040 h1         1 PE2       0.057200
     29 HN21        -0.0170     0.1620    -1.9440 hn         1 PE2       0.215467
     30 HN22        -1.3580     0.7240    -1.1980 hn         1 PE2       0.215467
     31 HN1         -1.7210     0.0040     1.1190 hn         1 PE2       0.188500
     32 H8           4.3990     0.0500     3.3210 h5         1 PE2       0.046100
     33 C1'          4.4480     0.0030     0.5020 c3         1 PE2      -0.069700
     34 H23         -1.1110    -0.8870    -1.3350 hn         1 PE2       0.215467
@<TRIPOS>BOND
     1     1    11 2   
     2     1    12 1   
     3     1    13 1   
     4     2     3 2   
     5     2    10 1   
     6     2    11 1   
     7     3    14 1   
     8     3    16 1   
     9     4     5 1   
    10     4     8 1   
    11     4    18 1   
    12     4    19 1   
    13     5    20 1   
    14     6     7 1   
    15     6     8 1   
    16     6    21 1   
    17     6    22 1   
    18     7    23 1   
    19     8     9 1   
    20     8    24 1   
    21     9    25 1   
    22     9    26 1   
    23     9    33 1   
    24    10    17 1   
    25    10    33 1   
    26    12    29 1   
    27    12    30 1   
    28    12    34 1   
    29    13    14 1   
    30    13    31 1   
    31    14    15 2   
    32    16    17 2   
    33    17    32 1   
    34    27    33 1   
    35    28    33 1   
@<TRIPOS>SUBSTRUCTURE
     1 PE2         1 TEMP              0 ****  ****    0 ROOT
