@<TRIPOS>MOLECULE
molecule
  101   100     1     0     0
SMALL
bcc


@<TRIPOS>ATOM
      1 O43          0.0000     0.0000     0.0000 oh         1 PE3      -0.600800
      2 C42          1.4280     0.0000     0.0000 c3         1 PE3       0.141400
      3 C41          1.9390     0.0000     1.4430 c3         1 PE3       0.128400
      4 O40          1.5600    -1.2210     2.0820 os         1 PE3      -0.386600
      5 C39          2.0620    -1.1610     3.4180 c3         1 PE3       0.125900
      6 C38          1.6900    -2.4450     4.1610 c3         1 PE3       0.126400
      7 O37          2.3560    -3.5560     3.5570 os         1 PE3      -0.388600
      8 C36          1.9690    -4.7190     4.2920 c3         1 PE3       0.126400
      9 C35          2.6520    -5.9500     3.6930 c3         1 PE3       0.126400
     10 O34          4.0660    -5.8440     3.8680 os         1 PE3      -0.389100
     11 C33          4.6420    -7.0180     3.2920 c3         1 PE3       0.126400
     12 C32          6.1640    -6.9680     3.4470 c3         1 PE3       0.126400
     13 O31          6.5030    -7.0220     4.8340 os         1 PE3      -0.388600
     14 C30          7.9290    -6.9710     4.9140 c3         1 PE3       0.126400
     15 C29          8.3610    -7.0270     6.3810 c3         1 PE3       0.126400
     16 O28          7.9960    -8.2910     6.9370 os         1 PE3      -0.388600
     17 C27          8.4240    -8.2800     8.3000 c3         1 PE3       0.126400
     18 C26          8.0620    -9.6130     8.9590 c3         1 PE3       0.126400
     19 O25          8.8010   -10.6670     8.3380 os         1 PE3      -0.388600
     20 C24          8.4200   -11.8800     8.9940 c3         1 PE3       0.126400
     21 C23          9.1790   -13.0540     8.3740 c3         1 PE3       0.126400
     22 O22         10.5770   -12.9070     8.6320 os         1 PE3      -0.389600
     23 C21         11.2290   -14.0280     8.0310 c3         1 PE3       0.126400
     24 C20         12.7360   -13.9310     8.2730 c3         1 PE3       0.126400
     25 O19         13.0030   -14.0450     9.6730 os         1 PE3      -0.388600
     26 C18         14.4200   -13.9470     9.8320 c3         1 PE3       0.126400
     27 C17         14.7740   -14.0610    11.3170 c3         1 PE3       0.126400
     28 O16         14.4290   -15.3640    11.7900 os         1 PE3      -0.388600
     29 C15         14.7820   -15.4080    13.1740 c3         1 PE3       0.126400
     30 C14         14.4370   -16.7840    13.7450 c3         1 PE3       0.126400
     31 O13         15.2480   -17.7790    13.1170 os         1 PE3      -0.388600
     32 C12         14.8790   -19.0350    13.6900 c3         1 PE3       0.126400
     33 C11         15.7160   -20.1490    13.0570 c3         1 PE3       0.126400
     34 O10         17.0910   -19.9660    13.3990 os         1 PE3      -0.389100
     35 C9          17.8160   -21.0310    12.7810 c3         1 PE3       0.126400
     36 C8          19.3040   -20.8930    13.1100 c3         1 PE3       0.126400
     37 O7          19.4990   -21.0680    14.5140 os         1 PE3      -0.388600
     38 C6          20.9010   -20.9290    14.7560 c3         1 PE3       0.126400
     39 C5          21.1810   -21.1040    16.2500 c3         1 PE3       0.125900
     40 O4          20.8600   -22.4420    16.6410 os         1 PE3      -0.386600
     41 C3          21.1410   -22.5430    18.0370 c3         1 PE3       0.128400
     42 C2          20.8190   -23.9580    18.5220 c3         1 PE3       0.141400
     43 O1          21.6990   -24.8890    17.8910 oh         1 PE3      -0.600800
     44 H43         -0.3140     0.0910    -0.8840 ho         1 PE3       0.399000
     45 H421         1.7890     0.8850    -0.5110 h1         1 PE3       0.028200
     46 H422         1.7900    -0.8840    -0.5110 h1         1 PE3       0.028200
     47 H411         3.0190     0.0880     1.4440 h1         1 PE3       0.032700
     48 H412         1.5080     0.8370     1.9790 h1         1 PE3       0.032700
     49 H391         1.6290    -0.3100     3.9290 h1         1 PE3       0.033950
     50 H392         3.1400    -1.0570     3.3950 h1         1 PE3       0.033950
     51 H381         1.9920    -2.3630     5.1980 h1         1 PE3       0.034200
     52 H382         0.6180    -2.5950     4.1090 h1         1 PE3       0.034200
     53 H361         0.8940    -4.8400     4.2380 h1         1 PE3       0.034200
     54 H362         2.2680    -4.6080     5.3270 h1         1 PE3       0.034200
     55 H351         2.2920    -6.8420     4.1920 h1         1 PE3       0.034200
     56 H352         2.4230    -6.0110     2.6350 h1         1 PE3       0.034200
     57 H331         4.2570    -7.8950     3.7970 h1         1 PE3       0.033950
     58 H332         4.3880    -7.0660     2.2400 h1         1 PE3       0.033950
     59 H321         6.5400    -6.0460     3.0190 h1         1 PE3       0.033700
     60 H322         6.6070    -7.8120     2.9340 h1         1 PE3       0.033700
     61 H301         8.2830    -6.0500     4.4680 h1         1 PE3       0.033700
     62 H302         8.3510    -7.8150     4.3810 h1         1 PE3       0.033700
     63 H291         7.8690    -6.2340     6.9320 h1         1 PE3       0.033700
     64 H292         9.4340    -6.8990     6.4460 h1         1 PE3       0.033700
     65 H271         7.9310    -7.4720     8.8270 h1         1 PE3       0.033700
     66 H272         9.4970    -8.1370     8.3410 h1         1 PE3       0.033700
     67 H261         7.0010    -9.7980     8.8410 h1         1 PE3       0.033950
     68 H262         8.3060    -9.5730    10.0130 h1         1 PE3       0.033950
     69 H241         7.3540   -12.0360     8.8750 h1         1 PE3       0.034450
     70 H242         8.6590   -11.8110    10.0480 h1         1 PE3       0.034450
     71 H231         9.0090   -13.0700     7.3040 h1         1 PE3       0.033700
     72 H232         8.8270   -13.9820     8.8090 h1         1 PE3       0.033700
     73 H211        10.8510   -14.9440     8.4710 h1         1 PE3       0.033700
     74 H212        11.0330   -14.0310     6.9660 h1         1 PE3       0.033700
     75 H201        13.0990   -12.9770     7.9120 h1         1 PE3       0.034450
     76 H202        13.2390   -14.7320     7.7440 h1         1 PE3       0.034450
     77 H181        14.7610   -12.9920     9.4520 h1         1 PE3       0.033950
     78 H182        14.9010   -14.7470     9.2830 h1         1 PE3       0.033950
     79 H171        14.2240   -13.3160    11.8780 h1         1 PE3       0.033700
     80 H172        15.8380   -13.9000    11.4470 h1         1 PE3       0.033700
     81 H151        14.2320   -14.6460    13.7110 h1         1 PE3       0.033700
     82 H152        15.8450   -15.2300    13.2800 h1         1 PE3       0.033700
     83 H141        14.6220   -16.7890    14.8130 h1         1 PE3       0.033700
     84 H142        13.3920   -17.0010    13.5600 h1         1 PE3       0.033700
     85 H121        13.8290   -19.2230    13.5040 h1         1 PE3       0.033700
     86 H122        15.0590   -19.0120    14.7580 h1         1 PE3       0.033700
     87 H111        15.6050   -20.1160    11.9790 h1         1 PE3       0.033950
     88 H112        15.3770   -21.1090    13.4250 h1         1 PE3       0.033950
     89 H91         17.6780   -20.9870    11.7080 h1         1 PE3       0.034200
     90 H92         17.4510   -21.9800    13.1530 h1         1 PE3       0.034200
     91 H81         19.6490   -19.9090    12.8170 h1         1 PE3       0.034200
     92 H82         19.8640   -21.6480    12.5710 h1         1 PE3       0.034200
     93 H61         21.2260   -19.9440    14.4410 h1         1 PE3       0.034200
     94 H62         21.4410   -21.6830    14.1970 h1         1 PE3       0.034200
     95 H51         20.5740   -20.4080    16.8160 h1         1 PE3       0.033950
     96 H52         22.2290   -20.9120    16.4470 h1         1 PE3       0.033950
     97 H31         22.1890   -22.3320    18.2110 h1         1 PE3       0.032700
     98 H32         20.5340   -21.8280    18.5800 h1         1 PE3       0.032700
     99 H21         20.9470   -24.0100    19.5960 h1         1 PE3       0.028200
    100 H22         19.7940   -24.2020    18.2690 h1         1 PE3       0.028200
    101 HO1         21.5620   -25.7480    18.2560 ho         1 PE3       0.399000
@<TRIPOS>BOND
     1     1     2 1
     2     1    44 1
     3     2     3 1
     4     2    45 1
     5     2    46 1
     6     3     4 1
     7     3    47 1
     8     3    48 1
     9     4     5 1
    10     5     6 1
    11     5    49 1
    12     5    50 1
    13     6     7 1
    14     6    51 1
    15     6    52 1
    16     7     8 1
    17     8     9 1
    18     8    53 1
    19     8    54 1
    20     9    10 1
    21     9    55 1
    22     9    56 1
    23    10    11 1
    24    11    12 1
    25    11    57 1
    26    11    58 1
    27    12    13 1
    28    12    59 1
    29    12    60 1
    30    13    14 1
    31    14    15 1
    32    14    61 1
    33    14    62 1
    34    15    16 1
    35    15    63 1
    36    15    64 1
    37    16    17 1
    38    17    18 1
    39    17    65 1
    40    17    66 1
    41    18    19 1
    42    18    67 1
    43    18    68 1
    44    19    20 1
    45    20    21 1
    46    20    69 1
    47    20    70 1
    48    21    22 1
    49    21    71 1
    50    21    72 1
    51    22    23 1
    52    23    24 1
    53    23    73 1
    54    23    74 1
    55    24    25 1
    56    24    75 1
    57    24    76 1
    58    25    26 1
    59    26    27 1
    60    26    77 1
    61    26    78 1
    62    27    28 1
    63    27    79 1
    64    27    80 1
    65    28    29 1
    66    29    30 1
    67    29    81 1
    68    29    82 1
    69    30    31 1
    70    30    83 1
    71    30    84 1
    72    31    32 1
    73    32    33 1
    74    32    85 1
    75    32    86 1
    76    33    34 1
    77    33    87 1
    78    33    88 1
    79    34    35 1
    80    35    36 1
    81    35    89 1
    82    35    90 1
    83    36    37 1
    84    36    91 1
    85    36    92 1
    86    37    38 1
    87    38    39 1
    88    38    93 1
    89    38    94 1
    90    39    40 1
    91    39    95 1
    92    39    96 1
    93    40    41 1
    94    41    42 1
    95    41    97 1
    96    41    98 1
    97    42    43 1
    98    42    99 1
    99    42   100 1
   100    43   101 1
@<TRIPOS>SUBSTRUCTURE
     1 PE3         1 TEMP              0 ****  ****    0 ROOT
