@<TRIPOS>MOLECULE
PE3
  101   100     1     0     0
SMALL
bcc


@<TRIPOS>ATOM
      1 O43        -1.4600    2.3700   -1.6030 oh        1 PE3     -0.600800
      2 C42        -1.0290    2.7010   -0.3000 c3        1 PE3      0.131400
      3 C41        -1.2740    1.5590    0.6820 c3        1 PE3      0.087400
      4 O40        -0.4180    0.4950    0.2730 os        1 PE3     -0.438600
      5 C39        -0.5800   -0.6720    1.0770 c3        1 PE3      0.129400
      6 C38         0.5160   -1.6450    0.6580 c3        1 PE3      0.127400
      7 O37         1.4760   -1.6520    1.7120 os        1 PE3     -0.428600
      8 C36         2.6370   -2.4110    1.3810 c3        1 PE3      0.127400
      9 C35         3.4830   -2.4850    2.6470 c3        1 PE3      0.127400
     10 O34         3.3480   -3.8140    3.1470 os        1 PE3     -0.429600
     11 C33         3.9680   -3.9760    4.4220 c3        1 PE3      0.127400
     12 C32         3.9090   -5.4650    4.7460 c3        1 PE3      0.127400
     13 O31         5.2350   -5.9660    4.5920 os        1 PE3     -0.428600
     14 C30         5.2940   -7.3850    4.7170 c3        1 PE3      0.127400
     15 C29         6.7730   -7.7600    4.7130 c3        1 PE3      0.127400
     16 O28         7.1040   -8.1170    6.0530 os        1 PE3     -0.429600
     17 C27         8.5030   -8.3360    6.2230 c3        1 PE3      0.127400
     18 C26         8.6890   -8.8720    7.6390 c3        1 PE3      0.127400
     19 O25         8.9990  -10.2580    7.5100 os        1 PE3     -0.428600
     20 C24         9.0450  -10.9200    8.7730 c3        1 PE3      0.127400
     21 C23         9.5580  -12.3300    8.5040 c3        1 PE3      0.127400
     22 O22        10.8990  -12.3730    8.9870 os        1 PE3     -0.428600
     23 C21        11.5530  -13.5970    8.6580 c3        1 PE3      0.127400
     24 C20        12.9000  -13.5740    9.3730 c3        1 PE3      0.127400
     25 O19        12.7970  -14.4900   10.4620 os        1 PE3     -0.428600
     26 C18        13.9390  -14.4450   11.3150 c3        1 PE3      0.127400
     27 C17        13.7740  -15.5800   12.3200 c3        1 PE3      0.127400
     28 O16        14.7140  -16.5870   11.9520 os        1 PE3     -0.429600
     29 C15        14.5570  -17.7780   12.7210 c3        1 PE3      0.127400
     30 C14        15.7240  -18.6880   12.3520 c3        1 PE3      0.127400
     31 O13        16.6180  -18.6720   13.4630 os        1 PE3     -0.428600
     32 C12        17.8370  -19.3580   13.1850 c3        1 PE3      0.127400
     33 C11        18.6140  -19.4070   14.4970 c3        1 PE3      0.127400
     34 O10        18.5400  -20.7540   14.9610 os        1 PE3     -0.429600
     35 C9         19.0890  -20.9040   16.2690 c3        1 PE3      0.127400
     36 C8         19.1010  -22.4010   16.5640 c3        1 PE3      0.127400
     37 O7         20.4600  -22.8220   16.4690 os        1 PE3     -0.428600
     38 C6         20.5950  -24.2380   16.5610 c3        1 PE3      0.127400
     39 C5         22.0910  -24.5280   16.6140 c3        1 PE3      0.129400
     40 O4         22.3840  -24.9050   17.9580 os        1 PE3     -0.438600
     41 C3         23.7850  -25.0360   18.1920 c3        1 PE3      0.087400
     42 C2         23.9310  -25.4980   19.6390 c3        1 PE3      0.131400
     43 O1         23.4090  -26.7960   19.8260 oh        1 PE3     -0.600800
     44 H43        -0.9940    1.5630   -1.8560 ho        1 PE3      0.412000
     45 H421        0.0610    2.9700   -0.3100 h1        1 PE3      0.053700
     46 H422       -1.6430    3.5930   -0.0060 h1        1 PE3      0.053700
     47 H411       -1.0170    1.8750    1.7260 h1        1 PE3      0.039200
     48 H412       -2.3430    1.2220    0.6400 h1        1 PE3      0.039200
     49 H391       -0.4850   -0.4100    2.1640 h1        1 PE3      0.045200
     50 H392       -1.5930   -1.1140    0.8820 h1        1 PE3      0.045200
     51 H381        0.9960   -1.3160   -0.3020 h1        1 PE3      0.043200
     52 H382        0.0960   -2.6780    0.5350 h1        1 PE3      0.043200
     53 H361        2.3450   -3.4380    1.0360 h1        1 PE3      0.044200
     54 H362        3.2000   -1.8850    0.5650 h1        1 PE3      0.044200
     55 H351        3.1230   -1.7440    3.4100 h1        1 PE3      0.043700
     56 H352        4.5610   -2.2880    2.4090 h1        1 PE3      0.043700
     57 H331        5.0300   -3.6180    4.3860 h1        1 PE3      0.043700
     58 H332        3.3960   -3.3870    5.1860 h1        1 PE3      0.043700
     59 H321        3.5760   -5.6220    5.8060 h1        1 PE3      0.043200
     60 H322        3.2090   -5.9980    4.0480 h1        1 PE3      0.043200
     61 H301        4.7700   -7.8540    3.8420 h1        1 PE3      0.043700
     62 H302        4.8030   -7.7120    5.6710 h1        1 PE3      0.043700
     63 H291        7.4020   -6.8940    4.3740 h1        1 PE3      0.043200
     64 H292        6.9510   -8.6410    4.0420 h1        1 PE3      0.043200
     65 H271        8.8750   -9.0760    5.4650 h1        1 PE3      0.043700
     66 H272        9.0460   -7.3630    6.0980 h1        1 PE3      0.043700
     67 H261        7.7520   -8.7380    8.2420 h1        1 PE3      0.043200
     68 H262        9.5420   -8.3490    8.1460 h1        1 PE3      0.043200
     69 H241        9.7310  -10.3730    9.4730 h1        1 PE3      0.043700
     70 H242        8.0110  -10.9560    9.2070 h1        1 PE3      0.043700
     71 H231        8.9420  -13.0830    9.0630 h1        1 PE3      0.043200
     72 H232        9.5330  -12.5610    7.4060 h1        1 PE3      0.043200
     73 H211       11.7010  -13.6490    7.5480 h1        1 PE3      0.043200
     74 H212       10.9360  -14.4700    8.9990 h1        1 PE3      0.043200
     75 H201       13.1320  -12.5440    9.7530 h1        1 PE3      0.043700
     76 H202       13.7150  -13.9150    8.6820 h1        1 PE3      0.043700
     77 H181       13.9660  -13.4560   11.8430 h1        1 PE3      0.043200
     78 H182       14.8770  -14.5780   10.7140 h1        1 PE3      0.043200
     79 H171       12.7300  -15.9920   12.2880 h1        1 PE3      0.043700
     80 H172       14.0060  -15.2210   13.3570 h1        1 PE3      0.043700
     81 H151       14.5710  -17.5380   13.8170 h1        1 PE3      0.043200
     82 H152       13.5820  -18.2640   12.4530 h1        1 PE3      0.043200
     83 H141       15.3640  -19.7380   12.1860 h1        1 PE3      0.043700
     84 H142       16.2440  -18.3160   11.4300 h1        1 PE3      0.043700
     85 H121       17.6230  -20.3930   12.8100 h1        1 PE3      0.043200
     86 H122       18.4130  -18.7870   12.4110 h1        1 PE3      0.043200
     87 H111       19.6890  -19.1370   14.3250 h1        1 PE3      0.043700
     88 H112       18.1660  -18.7100   15.2530 h1        1 PE3      0.043700
     89 H91        20.1280  -20.4830   16.3050 h1        1 PE3      0.043700
     90 H92        18.4370  -20.3660   17.0060 h1        1 PE3      0.043700
     91 H81        18.4690  -22.9580   15.8220 h1        1 PE3      0.044200
     92 H82        18.7270  -22.5980   17.6030 h1        1 PE3      0.044200
     93 H61        20.0820  -24.6170   17.4840 h1        1 PE3      0.043200
     94 H62        20.1370  -24.7120   15.6530 h1        1 PE3      0.043200
     95 H51        22.6830  -23.6180   16.3290 h1        1 PE3      0.045200
     96 H52        22.3510  -25.3780   15.9300 h1        1 PE3      0.045200
     97 H31        24.2160  -25.7940   17.4870 h1        1 PE3      0.039200
     98 H32        24.2910  -24.0470   18.0400 h1        1 PE3      0.039200
     99 H21        25.0190  -25.5790   19.9030 h1        1 PE3      0.053700
    100 H22        23.4210  -24.7730   20.3260 h1        1 PE3      0.053700
    101 HO1        22.4860  -26.7710   19.5420 ho        1 PE3      0.412000
@<TRIPOS>BOND
     1    1    2 1   
     2    1   44 1   
     3    2    3 1   
     4    2   45 1   
     5    2   46 1   
     6    3    4 1   
     7    3   47 1   
     8    3   48 1   
     9    4    5 1   
    10    5    6 1   
    11    5   49 1   
    12    5   50 1   
    13    6    7 1   
    14    6   51 1   
    15    6   52 1   
    16    7    8 1   
    17    8    9 1   
    18    8   53 1   
    19    8   54 1   
    20    9   10 1   
    21    9   55 1   
    22    9   56 1   
    23   10   11 1   
    24   11   12 1   
    25   11   57 1   
    26   11   58 1   
    27   12   13 1   
    28   12   59 1   
    29   12   60 1   
    30   13   14 1   
    31   14   15 1   
    32   14   61 1   
    33   14   62 1   
    34   15   16 1   
    35   15   63 1   
    36   15   64 1   
    37   16   17 1   
    38   17   18 1   
    39   17   65 1   
    40   17   66 1   
    41   18   19 1   
    42   18   67 1   
    43   18   68 1   
    44   19   20 1   
    45   20   21 1   
    46   20   69 1   
    47   20   70 1   
    48   21   22 1   
    49   21   71 1   
    50   21   72 1   
    51   22   23 1   
    52   23   24 1   
    53   23   73 1   
    54   23   74 1   
    55   24   25 1   
    56   24   75 1   
    57   24   76 1   
    58   25   26 1   
    59   26   27 1   
    60   26   77 1   
    61   26   78 1   
    62   27   28 1   
    63   27   79 1   
    64   27   80 1   
    65   28   29 1   
    66   29   30 1   
    67   29   81 1   
    68   29   82 1   
    69   30   31 1   
    70   30   83 1   
    71   30   84 1   
    72   31   32 1   
    73   32   33 1   
    74   32   85 1   
    75   32   86 1   
    76   33   34 1   
    77   33   87 1   
    78   33   88 1   
    79   34   35 1   
    80   35   36 1   
    81   35   89 1   
    82   35   90 1   
    83   36   37 1   
    84   36   91 1   
    85   36   92 1   
    86   37   38 1   
    87   38   39 1   
    88   38   93 1   
    89   38   94 1   
    90   39   40 1   
    91   39   95 1   
    92   39   96 1   
    93   40   41 1   
    94   41   42 1   
    95   41   97 1   
    96   41   98 1   
    97   42   43 1   
    98   42   99 1   
    99   42  100 1   
   100   43  101 1   
@<TRIPOS>SUBSTRUCTURE
     1 PE3         1 TEMP              0 ****  ****    0 ROOT
