@<TRIPOS>MOLECULE
PE4
   58    57     1     0     0
SMALL
bcc


@<TRIPOS>ATOM
      1 O1         -0.8240    2.6800    0.8530 oh        1 PE4     -0.600800
      2 C1         -1.4600    1.4200    0.7940 c3        1 PE4      0.131400
      3 C2         -0.5310    0.3460    0.2380 c3        1 PE4      0.087400
      4 O2          0.5090    0.1860    1.2000 os        1 PE4     -0.438600
      5 C3          1.4920   -0.7610    0.7850 c3        1 PE4      0.128400
      6 C4          2.4230   -0.9720    1.9750 c3        1 PE4      0.127400
      7 O3          2.1200   -2.2620    2.5010 os        1 PE4     -0.428600
      8 C5          2.8160   -2.5260    3.7170 c3        1 PE4      0.127400
      9 C6          2.5500   -3.9880    4.0600 c3        1 PE4      0.127400
     10 O4          3.7560   -4.6960    3.7820 os        1 PE4     -0.429600
     11 C7          3.5970   -6.1070    3.9120 c3        1 PE4      0.127400
     12 C8          4.9880   -6.7150    3.7700 c3        1 PE4      0.127400
     13 O5          5.3760   -7.1470    5.0720 os        1 PE4     -0.429600
     14 C9          6.7300   -7.5930    5.1120 c3        1 PE4      0.127400
     15 C10         6.9490   -8.1910    6.4980 c3        1 PE4      0.127400
     16 O6          7.0220   -9.6040    6.3220 os        1 PE4     -0.429600
     17 C11         7.0670  -10.3010    7.5650 c3        1 PE4      0.127400
     18 C12         7.3240  -11.7670    7.2310 c3        1 PE4      0.127400
     19 O7          8.6730  -12.0380    7.6070 os        1 PE4     -0.429600
     20 C13         9.0960  -13.3380    7.2000 c3        1 PE4      0.127400
     21 C14        10.4710  -13.5590    7.8220 c3        1 PE4      0.126400
     22 O8         10.3090  -14.5770    8.8070 os        1 PE4     -0.428600
     23 C15        11.4970  -14.7860    9.5690 c3        1 PE4      0.131400
     24 C16        11.1970  -15.8930   10.5540 c3        1 PE4     -0.097100
     25 HO1        -0.0300    2.5680    1.3920 ho        1 PE4      0.412000
     26 H11        -1.8240    1.1230    1.8130 h1        1 PE4      0.053200
     27 H12        -2.3310    1.5640    0.1010 h1        1 PE4      0.053200
     28 H21        -1.0810   -0.6220    0.1070 h1        1 PE4      0.039200
     29 H22        -0.0920    0.6680   -0.7430 h1        1 PE4      0.039200
     30 H31         1.0010   -1.7250    0.4870 h1        1 PE4      0.045200
     31 H32         2.0600   -0.3410   -0.0870 h1        1 PE4      0.045200
     32 H41         2.2550   -0.1840    2.7570 h1        1 PE4      0.043200
     33 H42         3.4940   -0.9510    1.6410 h1        1 PE4      0.043200
     34 H51         2.4160   -1.8560    4.5230 h1        1 PE4      0.044200
     35 H52         3.9150   -2.3420    3.5840 h1        1 PE4      0.044200
     36 H61         2.3030   -4.0950    5.1490 h1        1 PE4      0.043700
     37 H62         1.7090   -4.3960    3.4400 h1        1 PE4      0.043700
     38 H71         3.1530   -6.3580    4.9110 h1        1 PE4      0.043700
     39 H72         2.9220   -6.4770    3.0950 h1        1 PE4      0.043700
     40 H81         4.9600   -7.6010    3.0810 h1        1 PE4      0.043200
     41 H82         5.7170   -5.9560    3.3790 h1        1 PE4      0.043200
     42 H91         6.9100   -8.3610    4.3140 h1        1 PE4      0.043700
     43 H92         7.4110   -6.7160    4.9520 h1        1 PE4      0.043700
     44 H101        6.1010   -7.9280    7.1840 h1        1 PE4      0.043700
     45 H102        7.9150   -7.8240    6.9340 h1        1 PE4      0.043700
     46 H111        6.0810  -10.1860    8.0880 h1        1 PE4      0.043700
     47 H112        7.8880   -9.8900    8.2120 h1        1 PE4      0.043700
     48 H121        6.6380  -12.4290    7.8220 h1        1 PE4      0.043700
     49 H122        7.1810  -11.9570    6.1350 h1        1 PE4      0.043700
     50 H131        8.3670  -14.1130    7.5570 h1        1 PE4      0.043200
     51 H132        9.1610  -13.3690    6.0800 h1        1 PE4      0.043200
     52 H141       11.2010  -13.9100    7.0460 h1        1 PE4      0.041700
     53 H142       10.8500  -12.6150    8.2960 h1        1 PE4      0.041700
     54 H151       11.7730  -13.8360   10.1010 h1        1 PE4      0.024700
     55 H152       12.3360  -15.0730    8.8810 h1        1 PE4      0.024700
     56 H161       10.9140  -16.8280   10.0140 hc        1 PE4      0.045033
     57 H162       10.3500  -15.6020   11.2190 hc        1 PE4      0.045033
     58 H163       12.1020  -16.0880   11.1760 hc        1 PE4      0.045033
@<TRIPOS>BOND
     1    1    2 1   
     2    1   25 1   
     3    2    3 1   
     4    2   26 1   
     5    2   27 1   
     6    3    4 1   
     7    3   28 1   
     8    3   29 1   
     9    4    5 1   
    10    5    6 1   
    11    5   30 1   
    12    5   31 1   
    13    6    7 1   
    14    6   32 1   
    15    6   33 1   
    16    7    8 1   
    17    8    9 1   
    18    8   34 1   
    19    8   35 1   
    20    9   10 1   
    21    9   36 1   
    22    9   37 1   
    23   10   11 1   
    24   11   12 1   
    25   11   38 1   
    26   11   39 1   
    27   12   13 1   
    28   12   40 1   
    29   12   41 1   
    30   13   14 1   
    31   14   15 1   
    32   14   42 1   
    33   14   43 1   
    34   15   16 1   
    35   15   44 1   
    36   15   45 1   
    37   16   17 1   
    38   17   18 1   
    39   17   46 1   
    40   17   47 1   
    41   18   19 1   
    42   18   48 1   
    43   18   49 1   
    44   19   20 1   
    45   20   21 1   
    46   20   50 1   
    47   20   51 1   
    48   21   22 1   
    49   21   52 1   
    50   21   53 1   
    51   22   23 1   
    52   23   24 1   
    53   23   54 1   
    54   23   55 1   
    55   24   56 1   
    56   24   57 1   
    57   24   58 1   
@<TRIPOS>SUBSTRUCTURE
     1 PE4         1 TEMP              0 ****  ****    0 ROOT
