@<TRIPOS>MOLECULE
molecule
   58    57     1     0     0
SMALL
bcc


@<TRIPOS>ATOM
      1 O1           0.0000     0.0000     0.0000 oh         1 PE4      -0.598800
      2 C1           1.4280     0.0000     0.0000 c3         1 PE4       0.142400
      3 C2           1.9380     0.0000     1.4420 c3         1 PE4       0.128400
      4 O2           1.4620    -1.1680     2.1150 os         1 PE4      -0.381600
      5 C3           1.9690    -1.1100     3.4500 c3         1 PE4       0.125400
      6 C4           1.4940    -2.3380     4.2300 c3         1 PE4       0.126400
      7 O3           1.9710    -3.5230     3.5890 os         1 PE4      -0.383600
      8 C5           1.4970    -4.6280     4.3600 c3         1 PE4       0.126400
      9 C6           1.9750    -5.9350     3.7250 c3         1 PE4       0.126400
     10 O4           3.4040    -5.9540     3.6950 os         1 PE4      -0.384600
     11 C7           3.7870    -7.1940     3.0940 c3         1 PE4       0.126400
     12 C8           5.3130    -7.2790     3.0300 c3         1 PE4       0.126400
     13 O5           5.8480    -7.2030     4.3510 os         1 PE4      -0.383600
     14 C9           7.2690    -7.2880     4.2250 c3         1 PE4       0.126400
     15 C10          7.9110    -7.2130     5.6120 c3         1 PE4       0.126400
     16 O6           7.4390    -8.2990     6.4130 os         1 PE4      -0.384600
     17 C11          8.0700    -8.1750     7.6890 c3         1 PE4       0.126400
     18 C12          7.6050    -9.3120     8.6010 c3         1 PE4       0.126400
     19 O7           7.9580   -10.5670     8.0150 os         1 PE4      -0.383600
     20 C13          7.4990   -11.5830     8.9090 c3         1 PE4       0.126400
     21 C14          7.8480   -12.9590     8.3370 c3         1 PE4       0.128400
     22 O8           9.2650   -13.0650     8.1820 os         1 PE4      -0.397600
     23 C15          9.5250   -14.3640     7.6480 c3         1 PE4       0.122400
     24 C16         11.0310   -14.5450     7.4560 c3         1 PE4      -0.092100
     25 HO1         -0.3140     0.0920    -0.8840 ho         1 PE4       0.398000
     26 H11          1.7890    -0.8840    -0.5110 h1         1 PE4       0.027700
     27 H12          1.7890     0.8850    -0.5110 h1         1 PE4       0.027700
     28 H21          3.0210     0.0000     1.4430 h1         1 PE4       0.031700
     29 H22          1.5760     0.8840     1.9530 h1         1 PE4       0.031700
     30 H31          1.6070    -0.2120     3.9360 h1         1 PE4       0.032700
     31 H32          3.0520    -1.0950     3.4250 h1         1 PE4       0.032700
     32 H41          0.4110    -2.3520     4.2560 h1         1 PE4       0.033200
     33 H42          1.8790    -2.2940     5.2410 h1         1 PE4       0.033200
     34 H51          0.4140    -4.6130     4.3840 h1         1 PE4       0.032700
     35 H52          1.8810    -4.5550     5.3700 h1         1 PE4       0.032700
     36 H61          1.5910    -6.0070     2.7150 h1         1 PE4       0.033200
     37 H62          1.6150    -6.7730     4.3090 h1         1 PE4       0.033200
     38 H71          3.3800    -7.2500     2.0910 h1         1 PE4       0.033200
     39 H72          3.4040    -8.0160     3.6860 h1         1 PE4       0.033200
     40 H81          5.6960    -6.4560     2.4370 h1         1 PE4       0.032700
     41 H82          5.6040    -8.2180     2.5750 h1         1 PE4       0.032700
     42 H91          7.5350    -8.2270     3.7550 h1         1 PE4       0.033200
     43 H92          7.6270    -6.4660     3.6170 h1         1 PE4       0.033200
     44 H101         8.9880    -7.2770     5.5160 h1         1 PE4       0.033200
     45 H102         7.6450    -6.2750     6.0830 h1         1 PE4       0.033200
     46 H111         9.1450    -8.2270     7.5670 h1         1 PE4       0.033200
     47 H112         7.8030    -7.2240     8.1330 h1         1 PE4       0.033200
     48 H121         6.5300    -9.2600     8.7230 h1         1 PE4       0.032700
     49 H122         8.0830    -9.2180     9.5680 h1         1 PE4       0.032700
     50 H131         6.4260   -11.5020     9.0270 h1         1 PE4       0.032200
     51 H132         7.9800   -11.4590     9.8720 h1         1 PE4       0.032200
     52 H141         7.3700   -13.0810     7.3730 h1         1 PE4       0.033700
     53 H142         7.5000   -13.7300     9.0130 h1         1 PE4       0.033700
     54 H151         9.1560   -15.1170     8.3340 h1         1 PE4       0.022200
     55 H152         9.0240   -14.4690     6.6930 h1         1 PE4       0.022200
     56 H161        11.3910   -13.8290     6.7260 hc         1 PE4       0.043033
     57 H162        11.5380   -14.3840     8.4000 hc         1 PE4       0.043033
     58 H163        11.2330   -15.5500     7.1050 hc         1 PE4       0.043033
@<TRIPOS>BOND
     1     1     2 1
     2     1    25 1
     3     2     3 1
     4     2    26 1
     5     2    27 1
     6     3     4 1
     7     3    28 1
     8     3    29 1
     9     4     5 1
    10     5     6 1
    11     5    30 1
    12     5    31 1
    13     6     7 1
    14     6    32 1
    15     6    33 1
    16     7     8 1
    17     8     9 1
    18     8    34 1
    19     8    35 1
    20     9    10 1
    21     9    36 1
    22     9    37 1
    23    10    11 1
    24    11    12 1
    25    11    38 1
    26    11    39 1
    27    12    13 1
    28    12    40 1
    29    12    41 1
    30    13    14 1
    31    14    15 1
    32    14    42 1
    33    14    43 1
    34    15    16 1
    35    15    44 1
    36    15    45 1
    37    16    17 1
    38    17    18 1
    39    17    46 1
    40    17    47 1
    41    18    19 1
    42    18    48 1
    43    18    49 1
    44    19    20 1
    45    20    21 1
    46    20    50 1
    47    20    51 1
    48    21    22 1
    49    21    52 1
    50    21    53 1
    51    22    23 1
    52    23    24 1
    53    23    54 1
    54    23    55 1
    55    24    56 1
    56    24    57 1
    57    24    58 1
@<TRIPOS>SUBSTRUCTURE
     1 PE4         1 TEMP              0 ****  ****    0 ROOT
