@<TRIPOS>MOLECULE
molecule
   65    64     1     0     0
SMALL
bcc


@<TRIPOS>ATOM
      1 C48          0.0000     0.0000     0.0000 c3         1 PE5      -0.092100
      2 C50          1.5290     0.0000     0.0000 c3         1 PE5       0.122400
      3 O1           2.0060     0.0000     1.3470 os         1 PE5      -0.397600
      4 C1           3.4330     0.0000     1.2810 c3         1 PE5       0.128400
      5 C2           4.0100    -0.0010     2.6970 c3         1 PE5       0.126400
      6 O2           3.5660    -1.1680     3.3910 os         1 PE5      -0.383600
      7 C3           4.1350    -1.1110     4.7010 c3         1 PE5       0.126400
      8 C4           3.6970    -2.3390     5.5010 c3         1 PE5       0.126400
      9 O3           4.1440    -3.5240     4.8390 os         1 PE5      -0.383600
     10 C5           3.7070    -4.6290     5.6310 c3         1 PE5       0.126400
     11 C6           4.1550    -5.9350     4.9750 c3         1 PE5       0.126400
     12 O4           5.5800    -5.9550     4.8760 os         1 PE5      -0.384600
     13 C7           5.9350    -7.1940     4.2590 c3         1 PE5       0.126400
     14 C8           7.4560    -7.2790     4.1230 c3         1 PE5       0.126400
     15 O5           8.0540    -7.2040     5.4180 os         1 PE5      -0.384600
     16 C9           9.4680    -7.2880     5.2250 c3         1 PE5       0.126400
     17 C10         10.1730    -7.2140     6.5800 c3         1 PE5       0.126400
     18 O6           9.7390    -8.2990     7.4030 os         1 PE5      -0.384600
     19 C11         10.4290    -8.1750     8.6470 c3         1 PE5       0.126400
     20 C12         10.0070    -9.3120     9.5800 c3         1 PE5       0.126400
     21 O7          10.3330   -10.5660     8.9780 os         1 PE5      -0.384600
     22 C13          9.9180   -11.5840     9.8920 c3         1 PE5       0.126400
     23 C14         10.2390   -12.9590     9.3050 c3         1 PE5       0.126400
     24 O8          11.6460   -13.0650     9.0820 os         1 PE5      -0.381600
     25 C15         11.8810   -14.3650     8.5370 c3         1 PE5       0.128400
     26 C16         13.3770   -14.5450     8.2740 c3         1 PE5       0.142400
     27 O52         14.0960   -14.4060     9.5020 oh         1 PE5      -0.598800
     28 H481        -0.3610     0.8540     0.5600 hc         1 PE5       0.043033
     29 H482        -0.3610     0.0580    -1.0200 hc         1 PE5       0.043033
     30 H483        -0.3610    -0.9120     0.4590 hc         1 PE5       0.043033
     31 H501         1.8900     0.8850    -0.5110 h1         1 PE5       0.022200
     32 H502         1.8900    -0.8850    -0.5110 h1         1 PE5       0.022200
     33 H11          3.7700    -0.8840     0.7530 h1         1 PE5       0.033200
     34 H12          3.7700     0.8850     0.7550 h1         1 PE5       0.033200
     35 H21          5.0920    -0.0010     2.6470 h1         1 PE5       0.032200
     36 H22          3.6730     0.8830     3.2250 h1         1 PE5       0.032200
     37 H31          5.2150    -1.0960     4.6250 h1         1 PE5       0.032700
     38 H32          3.7960    -0.2130     5.2040 h1         1 PE5       0.032700
     39 H41          2.6160    -2.3540     5.5770 h1         1 PE5       0.033200
     40 H42          4.1280    -2.2960     6.4940 h1         1 PE5       0.033200
     41 H51          2.6260    -4.6150     5.7050 h1         1 PE5       0.033200
     42 H52A         4.1380    -4.5560     6.6220 h1         1 PE5       0.033200
     43 H61          3.7230    -6.0080     3.9840 h1         1 PE5       0.033200
     44 H62          3.8230    -6.7730     5.5750 h1         1 PE5       0.033200
     45 H71          5.5800    -8.0160     4.8690 h1         1 PE5       0.033200
     46 H72          5.4810    -7.2510     3.2770 h1         1 PE5       0.033200
     47 H81          7.8100    -6.4570     3.5130 h1         1 PE5       0.032700
     48 H82          7.7250    -8.2180     3.6550 h1         1 PE5       0.032700
     49 H91          9.7970    -6.4650     4.6020 h1         1 PE5       0.033200
     50 H92          9.7110    -8.2270     4.7430 h1         1 PE5       0.033200
     51 H101        11.2440    -7.2790     6.4330 h1         1 PE5       0.033200
     52 H102         9.9300    -6.2750     7.0630 h1         1 PE5       0.033200
     53 H111        10.1820    -7.2240     9.1030 h1         1 PE5       0.032700
     54 H112        11.4970    -8.2260     8.4750 h1         1 PE5       0.032700
     55 H121         8.9390    -9.2610     9.7520 h1         1 PE5       0.033200
     56 H122        10.5310    -9.2180    10.5240 h1         1 PE5       0.033200
     57 H131         8.8510   -11.5030    10.0610 h1         1 PE5       0.033200
     58 H132        10.4430   -11.4610    10.8320 h1         1 PE5       0.033200
     59 H141         9.9230   -13.7300     9.9970 h1         1 PE5       0.032700
     60 H142         9.7140   -13.0810     8.3640 h1         1 PE5       0.032700
     61 H151        11.5450   -15.1170     9.2400 h1         1 PE5       0.031700
     62 H152        11.3360   -14.4700     7.6070 h1         1 PE5       0.031700
     63 H161        13.5550   -15.5310     7.8610 h1         1 PE5       0.027700
     64 H162        13.7140   -13.7930     7.5720 h1         1 PE5       0.027700
     65 H52         15.0060   -14.6070     9.3580 ho         1 PE5       0.398000
@<TRIPOS>BOND
     1     1     2 1
     2     1    28 1
     3     1    29 1
     4     1    30 1
     5     2     3 1
     6     2    31 1
     7     2    32 1
     8     3     4 1
     9     4     5 1
    10     4    33 1
    11     4    34 1
    12     5     6 1
    13     5    35 1
    14     5    36 1
    15     6     7 1
    16     7     8 1
    17     7    37 1
    18     7    38 1
    19     8     9 1
    20     8    39 1
    21     8    40 1
    22     9    10 1
    23    10    11 1
    24    10    41 1
    25    10    42 1
    26    11    12 1
    27    11    43 1
    28    11    44 1
    29    12    13 1
    30    13    14 1
    31    13    45 1
    32    13    46 1
    33    14    15 1
    34    14    47 1
    35    14    48 1
    36    15    16 1
    37    16    17 1
    38    16    49 1
    39    16    50 1
    40    17    18 1
    41    17    51 1
    42    17    52 1
    43    18    19 1
    44    19    20 1
    45    19    53 1
    46    19    54 1
    47    20    21 1
    48    20    55 1
    49    20    56 1
    50    21    22 1
    51    22    23 1
    52    22    57 1
    53    22    58 1
    54    23    24 1
    55    23    59 1
    56    23    60 1
    57    24    25 1
    58    25    26 1
    59    25    61 1
    60    25    62 1
    61    26    27 1
    62    26    63 1
    63    26    64 1
    64    27    65 1
@<TRIPOS>SUBSTRUCTURE
     1 PE5         1 TEMP              0 ****  ****    0 ROOT
