@<TRIPOS>MOLECULE
PE5
   65    64     1     0     0
SMALL
bcc


@<TRIPOS>ATOM
      1 C48        -0.2170    3.7280    0.0640 c3        1 PE5     -0.097100
      2 C50        -0.4250    2.6300    1.0800 c3        1 PE5      0.131400
      3 O1          0.3800    1.5260    0.6670 os        1 PE5     -0.428600
      4 C1          0.2560    0.4090    1.5440 c3        1 PE5      0.126400
      5 C2          1.2760   -0.6240    1.0760 c3        1 PE5      0.127400
      6 O2          2.2730   -0.6980    2.0940 os        1 PE5     -0.429600
      7 C3          3.3810   -1.5080    1.7060 c3        1 PE5      0.127400
      8 C4          4.2710   -1.6410    2.9370 c3        1 PE5      0.127400
      9 O3          4.1090   -2.9770    3.4110 os        1 PE5     -0.429600
     10 C5          4.7660   -3.1900    4.6590 c3        1 PE5      0.127400
     11 C6          4.6620   -4.6830    4.9530 c3        1 PE5      0.127400
     12 O4          5.9650   -5.2270    4.7510 os        1 PE5     -0.429600
     13 C7          5.9740   -6.6510    4.8330 c3        1 PE5      0.127400
     14 C8          7.4360   -7.0790    4.7760 c3        1 PE5      0.127400
     15 O5          7.7850   -7.5060    6.0910 os        1 PE5     -0.429600
     16 C9          9.1780   -7.7800    6.2190 c3        1 PE5      0.127400
     17 C10         9.3760   -8.3880    7.6030 c3        1 PE5      0.127400
     18 O6          9.6340   -9.7770    7.4030 os        1 PE5     -0.429600
     19 C11         9.6720  -10.5010    8.6310 c3        1 PE5      0.127400
     20 C12        10.1230  -11.9160    8.2850 c3        1 PE5      0.127400
     21 O7         11.4700  -12.0340    8.7390 os        1 PE5     -0.428600
     22 C13        12.0750  -13.2570    8.3240 c3        1 PE5      0.127400
     23 C14        13.4330  -13.3250    9.0150 c3        1 PE5      0.128400
     24 O8         13.3180  -14.3100   10.0400 os        1 PE5     -0.438600
     25 C15        14.4680  -14.3550   10.8820 c3        1 PE5      0.087400
     26 C16        14.2220  -15.4850   11.8760 c3        1 PE5      0.131400
     27 O52        14.1930  -16.7440   11.2360 oh        1 PE5     -0.600800
     28 H481        0.8590    4.0200    0.0210 hc        1 PE5      0.045033
     29 H482       -0.8270    4.6170    0.3510 hc        1 PE5      0.045033
     30 H483       -0.5280    3.3830   -0.9510 hc        1 PE5      0.045033
     31 H501       -1.5020    2.3130    1.1200 h1        1 PE5      0.024700
     32 H502       -0.1070    2.9620    2.1050 h1        1 PE5      0.024700
     33 H11        -0.7840   -0.0050    1.4700 h1        1 PE5      0.041700
     34 H12         0.4620    0.7200    2.6030 h1        1 PE5      0.041700
     35 H21         1.7390   -0.3120    0.1010 h1        1 PE5      0.043200
     36 H22         0.7940   -1.6290    0.9600 h1        1 PE5      0.043200
     37 H31         3.0240   -2.5140    1.3610 h1        1 PE5      0.043200
     38 H32         3.9360   -0.9980    0.8750 h1        1 PE5      0.043200
     39 H41         3.9670   -0.9080    3.7310 h1        1 PE5      0.043700
     40 H42         5.3460   -1.4760    2.6630 h1        1 PE5      0.043700
     41 H51         5.8400   -2.8700    4.5930 h1        1 PE5      0.043200
     42 H52A        4.2440   -2.5970    5.4560 h1        1 PE5      0.043200
     43 H61         4.3550   -4.8510    6.0190 h1        1 PE5      0.043700
     44 H62         3.9240   -5.1740    4.2650 h1        1 PE5      0.043700
     45 H71         5.4970   -6.9880    5.7910 h1        1 PE5      0.043200
     46 H72         5.4080   -7.0730    3.9600 h1        1 PE5      0.043200
     47 H81         8.0900   -6.2230    4.4590 h1        1 PE5      0.043700
     48 H82         7.5660   -7.9370    4.0640 h1        1 PE5      0.043700
     49 H91         9.7520   -6.8200    6.1280 h1        1 PE5      0.043200
     50 H92         9.5080   -8.4950    5.4190 h1        1 PE5      0.043200
     51 H101        8.4570   -8.2500    8.2330 h1        1 PE5      0.043700
     52 H102       10.2580   -7.9200    8.1140 h1        1 PE5      0.043700
     53 H111        8.6450  -10.5180    9.0810 h1        1 PE5      0.043700
     54 H112       10.3900  -10.0170    9.3450 h1        1 PE5      0.043700
     55 H121       10.0690  -12.0920    7.1780 h1        1 PE5      0.044200
     56 H122        9.4880  -12.6710    8.8190 h1        1 PE5      0.044200
     57 H131       12.2040  -13.2450    7.2100 h1        1 PE5      0.043200
     58 H132       11.4320  -14.1280    8.6210 h1        1 PE5      0.043200
     59 H141       13.7020  -12.3310    9.4620 h1        1 PE5      0.045200
     60 H142       14.2270  -13.6410    8.2900 h1        1 PE5      0.045200
     61 H151       15.3810  -14.5600   10.2640 h1        1 PE5      0.039200
     62 H152       14.5860  -13.3770   11.4180 h1        1 PE5      0.039200
     63 H161       13.2600  -15.3090   12.4270 h1        1 PE5      0.053700
     64 H162       15.0760  -15.5460   12.6020 h1        1 PE5      0.053700
     65 H52        13.5070  -16.6980   10.5570 ho        1 PE5      0.412000
@<TRIPOS>BOND
     1    1    2 1   
     2    1   28 1   
     3    1   29 1   
     4    1   30 1   
     5    2    3 1   
     6    2   31 1   
     7    2   32 1   
     8    3    4 1   
     9    4    5 1   
    10    4   33 1   
    11    4   34 1   
    12    5    6 1   
    13    5   35 1   
    14    5   36 1   
    15    6    7 1   
    16    7    8 1   
    17    7   37 1   
    18    7   38 1   
    19    8    9 1   
    20    8   39 1   
    21    8   40 1   
    22    9   10 1   
    23   10   11 1   
    24   10   41 1   
    25   10   42 1   
    26   11   12 1   
    27   11   43 1   
    28   11   44 1   
    29   12   13 1   
    30   13   14 1   
    31   13   45 1   
    32   13   46 1   
    33   14   15 1   
    34   14   47 1   
    35   14   48 1   
    36   15   16 1   
    37   16   17 1   
    38   16   49 1   
    39   16   50 1   
    40   17   18 1   
    41   17   51 1   
    42   17   52 1   
    43   18   19 1   
    44   19   20 1   
    45   19   53 1   
    46   19   54 1   
    47   20   21 1   
    48   20   55 1   
    49   20   56 1   
    50   21   22 1   
    51   22   23 1   
    52   22   57 1   
    53   22   58 1   
    54   23   24 1   
    55   23   59 1   
    56   23   60 1   
    57   24   25 1   
    58   25   26 1   
    59   25   61 1   
    60   25   62 1   
    61   26   27 1   
    62   26   63 1   
    63   26   64 1   
    64   27   65 1   
@<TRIPOS>SUBSTRUCTURE
     1 PE5         1 TEMP              0 ****  ****    0 ROOT
