@<TRIPOS>MOLECULE
PE6
   48    47     1     0     0
SMALL
bcc


@<TRIPOS>ATOM
      1 C3         -3.3630   -1.2420   -3.3000 c3        1 PE6      0.195400
      2 O2         -3.2000   -2.6030   -3.3430 os        1 PE6     -0.572200
      3 P1         -2.8960   -3.4140   -1.8630 p5        1 PE6      1.328900
      4 OP1        -3.6790   -4.6920   -2.0460 o         1 PE6     -0.923500
      5 OP2        -1.4090   -3.6350   -1.9930 o         1 PE6     -0.923500
      6 C4         -2.1220   -0.4660   -3.7750 c3        1 PE6      0.091400
      7 O5         -1.8720   -0.7020   -5.1610 os        1 PE6     -0.438600
      8 C6         -0.6260   -1.3070   -5.4560 c3        1 PE6      0.149400
      9 C7         -0.3020   -2.5420   -4.6260 c3        1 PE6      0.063400
     10 O8          0.0620   -3.5690   -5.5590 os        1 PE6     -0.457600
     11 C9          0.2530   -4.8330   -4.9390 c3        1 PE6      0.126400
     12 C10        -1.0580   -5.4550   -4.4690 c3        1 PE6      0.055400
     13 O11        -0.8420   -6.8320   -4.1680 os        1 PE6     -0.451600
     14 O20        -6.0480   -6.6870   -6.3770 oh        1 PE6     -0.646800
     15 C19        -5.3530   -5.8670   -5.4440 c3        1 PE6      0.103400
     16 C18        -5.5370   -6.3470   -4.0100 c3        1 PE6      0.048400
     17 O17        -5.1860   -7.7290   -3.9270 os        1 PE6     -0.468600
     18 C16        -3.8290   -7.9560   -3.5550 c3        1 PE6      0.104400
     19 C15        -3.6430   -7.8120   -2.0490 c3        1 PE6      0.086400
     20 O14        -2.2840   -8.0520   -1.7020 os        1 PE6     -0.459600
     21 C13        -1.4540   -6.8910   -1.7740 c3        1 PE6      0.063400
     22 C12        -0.3870   -7.0790   -2.8430 c3        1 PE6      0.126400
     23 OP3        -3.3680   -2.4570   -0.8100 o         1 PE6     -0.923500
     24 H31        -3.5960   -0.8990   -2.2500 h1        1 PE6      0.011700
     25 H32        -4.2160   -0.9580   -3.9850 h1        1 PE6      0.011700
     26 H41        -1.2310   -0.7150   -3.1460 h1        1 PE6      0.017200
     27 H42        -2.3220    0.6400   -3.7020 h1        1 PE6      0.017200
     28 H61        -0.7070   -1.5730   -6.5450 h1        1 PE6      0.010200
     29 H62         0.1860   -0.5370   -5.3240 h1        1 PE6      0.010200
     30 H71        -1.1750   -2.8720   -3.9740 h1        1 PE6      0.093200
     31 H72         0.5780   -2.3510   -3.9560 h1        1 PE6      0.093200
     32 H91         0.9620   -4.7350   -4.0750 h1        1 PE6      0.018700
     33 H92         0.7260   -5.4580   -5.7440 h1        1 PE6      0.018700
     34 H101       -1.8110   -5.4660   -5.3000 h1        1 PE6      0.106700
     35 H102       -1.4780   -4.8840   -3.5780 h1        1 PE6      0.106700
     36 H20        -5.8910   -7.5990   -6.1020 ho        1 PE6      0.399000
     37 H191       -4.2620   -5.8550   -5.7100 h1        1 PE6      0.052200
     38 H192       -5.7820   -4.8400   -5.5720 h1        1 PE6      0.052200
     39 H181       -4.9280   -5.7040   -3.3000 h1        1 PE6      0.106700
     40 H182       -6.6220   -6.3230   -3.7270 h1        1 PE6      0.106700
     41 H161       -3.1370   -7.2470   -4.0860 h1        1 PE6      0.047200
     42 H162       -3.6260   -9.0080   -3.8900 h1        1 PE6      0.047200
     43 H151       -4.2150   -8.6100   -1.5040 h1        1 PE6      0.075200
     44 H152       -3.9760   -6.7860   -1.7150 h1        1 PE6      0.075200
     45 H131       -2.0480   -5.9330   -1.9390 h1        1 PE6      0.098700
     46 H132       -0.9500   -6.8370   -0.7700 h1        1 PE6      0.098700
     47 H121       -0.0460   -8.1490   -2.8790 h1        1 PE6      0.023200
     48 H122        0.4790   -6.4050   -2.6070 h1        1 PE6      0.023200
@<TRIPOS>BOND
     1    1    2 1   
     2    1    6 1   
     3    1   24 1   
     4    1   25 1   
     5    2    3 1   
     6    3    4 1   
     7    3    5 1   
     8    3   23 1   
     9    6    7 1   
    10    6   26 1   
    11    6   27 1   
    12    7    8 1   
    13    8    9 1   
    14    8   28 1   
    15    8   29 1   
    16    9   10 1   
    17    9   30 1   
    18    9   31 1   
    19   10   11 1   
    20   11   12 1   
    21   11   32 1   
    22   11   33 1   
    23   12   13 1   
    24   12   34 1   
    25   12   35 1   
    26   13   22 1   
    27   14   15 1   
    28   14   36 1   
    29   15   16 1   
    30   15   37 1   
    31   15   38 1   
    32   16   17 1   
    33   16   39 1   
    34   16   40 1   
    35   17   18 1   
    36   18   19 1   
    37   18   41 1   
    38   18   42 1   
    39   19   20 1   
    40   19   43 1   
    41   19   44 1   
    42   20   21 1   
    43   21   22 1   
    44   21   45 1   
    45   21   46 1   
    46   22   47 1   
    47   22   48 1   
@<TRIPOS>SUBSTRUCTURE
     1 PE6         1 TEMP              0 ****  ****    0 ROOT
