@<TRIPOS>MOLECULE
molecule
   48    47     1     0     0
SMALL
bcc


@<TRIPOS>ATOM
      1 C3           0.0000     0.0000     0.0000 c3         1 PE6       0.162400
      2 O2           1.4280     0.0000     0.0000 os         1 PE6      -0.534200
      3 P1           1.8940     0.0000     1.5400 p5         1 PE6       1.157900
      4 OP1          1.3690    -1.2100     2.2130 o          1 PE6      -0.914500
      5 OP2          3.5030    -0.0000     1.6140 o          1 PE6      -0.914500
      6 C4          -0.5100     0.0020    -1.4420 c3         1 PE6       0.114400
      7 O5          -0.0340    -1.1650    -2.1170 os         1 PE6      -0.354600
      8 C6          -0.5430    -1.1060    -3.4510 c3         1 PE6       0.126400
      9 C7          -0.0680    -2.3320    -4.2330 c3         1 PE6       0.124400
     10 O8          -0.5440    -3.5180    -3.5930 os         1 PE6      -0.365600
     11 C9          -0.0690    -4.6220    -4.3650 c3         1 PE6       0.129400
     12 C10         -0.5470    -5.9300    -3.7320 c3         1 PE6       0.124400
     13 O11         -1.9750    -5.9500    -3.7000 os         1 PE6      -0.382600
     14 O20         -6.5310   -10.5580    -8.0250 oh         1 PE6      -0.597800
     15 C19         -6.1800    -9.3030    -8.6090 c3         1 PE6       0.141400
     16 C18         -6.6430    -8.1670    -7.6950 c3         1 PE6       0.129400
     17 O17         -6.0110    -8.2920    -6.4210 os         1 PE6      -0.379600
     18 C16         -6.4840    -7.2090    -5.6180 c3         1 PE6       0.124400
     19 C15         -5.8420    -7.2840    -4.2300 c3         1 PE6       0.128400
     20 O14         -4.4210    -7.2000    -4.3580 os         1 PE6      -0.384600
     21 C13         -3.8840    -7.2750    -3.0360 c3         1 PE6       0.124400
     22 C12         -2.3580    -7.1900    -3.1010 c3         1 PE6       0.128400
     23 OP3          1.3230     1.3130     2.2750 o          1 PE6      -0.914500
     24 H31         -0.3610     0.8840     0.5120 h1         1 PE6       0.048200
     25 H32         -0.3610    -0.8850     0.5100 h1         1 PE6       0.048200
     26 H41         -0.1490     0.8860    -1.9520 h1         1 PE6      -0.003800
     27 H42         -1.5940     0.0020    -1.4420 h1         1 PE6      -0.003800
     28 H61         -0.1820    -0.2070    -3.9360 h1         1 PE6       0.013700
     29 H62         -1.6260    -1.0920    -3.4250 h1         1 PE6       0.013700
     30 H71          1.0150    -2.3470    -4.2600 h1         1 PE6       0.019200
     31 H72         -0.4540    -2.2880    -5.2440 h1         1 PE6       0.019200
     32 H91         -0.4530    -4.5490    -5.3750 h1         1 PE6       0.023700
     33 H92          1.0140    -4.6070    -4.3890 h1         1 PE6       0.023700
     34 H101        -0.1870    -6.7680    -4.3180 h1         1 PE6       0.032200
     35 H102        -0.1620    -6.0040    -2.7220 h1         1 PE6       0.032200
     36 H20         -6.3270   -11.2530    -8.6280 ho         1 PE6       0.393000
     37 H191        -6.6590    -9.2070    -9.5750 h1         1 PE6       0.025700
     38 H192        -5.1050    -9.2510    -8.7330 h1         1 PE6       0.025700
     39 H181        -6.3760    -7.2150    -8.1390 h1         1 PE6       0.029700
     40 H182        -7.7180    -8.2190    -7.5720 h1         1 PE6       0.029700
     41 H161        -7.5610    -7.2740    -5.5210 h1         1 PE6       0.030700
     42 H162        -6.2190    -6.2690    -6.0870 h1         1 PE6       0.030700
     43 H151        -6.1990    -6.4630    -3.6220 h1         1 PE6       0.032200
     44 H152        -6.1070    -8.2240    -3.7600 h1         1 PE6       0.032200
     45 H131        -4.2670    -6.4530    -2.4440 h1         1 PE6       0.033700
     46 H132        -4.1740    -8.2140    -2.5810 h1         1 PE6       0.033700
     47 H121        -1.9750    -8.0110    -3.6950 h1         1 PE6       0.032200
     48 H122        -1.9500    -7.2470    -2.0990 h1         1 PE6       0.032200
@<TRIPOS>BOND
     1     1     2 1
     2     1     6 1
     3     1    24 1
     4     1    25 1
     5     2     3 1
     6     3     4 1
     7     3     5 1
     8     3    23 1
     9     6     7 1
    10     6    26 1
    11     6    27 1
    12     7     8 1
    13     8     9 1
    14     8    28 1
    15     8    29 1
    16     9    10 1
    17     9    30 1
    18     9    31 1
    19    10    11 1
    20    11    12 1
    21    11    32 1
    22    11    33 1
    23    12    13 1
    24    12    34 1
    25    12    35 1
    26    13    22 1
    27    14    15 1
    28    14    36 1
    29    15    16 1
    30    15    37 1
    31    15    38 1
    32    16    17 1
    33    16    39 1
    34    16    40 1
    35    17    18 1
    36    18    19 1
    37    18    41 1
    38    18    42 1
    39    19    20 1
    40    19    43 1
    41    19    44 1
    42    20    21 1
    43    21    22 1
    44    21    45 1
    45    21    46 1
    46    22    47 1
    47    22    48 1
@<TRIPOS>SUBSTRUCTURE
     1 PE6         1 TEMP              0 ****  ****    0 ROOT
