@<TRIPOS>MOLECULE
molecule
   52    51     1     0     0
SMALL
bcc


@<TRIPOS>ATOM
      1 S1           0.0000     0.0000     0.0000 sh         1 PE7      -0.430900
      2 C2           1.8140     0.0000     0.0000 c3         1 PE7       0.039700
      3 C3           2.3240     0.0000     1.4410 c3         1 PE7       0.140400
      4 O4           3.7530     0.0010     1.4410 os         1 PE7      -0.398600
      5 C5           4.1660     0.0010     2.8100 c3         1 PE7       0.129400
      6 C6           5.6940     0.0010     2.8800 c3         1 PE7       0.126400
      7 O7           6.2010     1.1680     2.2300 os         1 PE7      -0.383600
      8 C8           7.6250     1.1100     2.3300 c3         1 PE7       0.126400
      9 C9           8.2340     2.3380     1.6500 c3         1 PE7       0.126400
     10 O10          7.7590     3.5230     2.2920 os         1 PE7      -0.384600
     11 C11          8.3590     4.6290     1.6150 c3         1 PE7       0.126400
     12 C12          7.8900     5.9350     2.2560 c3         1 PE7       0.126400
     13 O13          8.2730     5.9540     3.6330 os         1 PE7      -0.384600
     14 C14          7.8090     7.1920     4.1730 c3         1 PE7       0.126400
     15 C15          8.1890     7.2780     5.6520 c3         1 PE7       0.126400
     16 O16          9.6090     7.2030     5.7840 os         1 PE7      -0.384600
     17 C17          9.8990     7.2870     7.1810 c3         1 PE7       0.126400
     18 C18         11.4120     7.2140     7.3930 c3         1 PE7       0.126400
     19 O19         12.0440     8.2980     6.7090 os         1 PE7      -0.381600
     20 C20         13.4470     8.1750     6.9450 c3         1 PE7       0.128400
     21 C21         14.1860     9.3120     6.2370 c3         1 PE7       0.142400
     22 O22         13.7270    10.5660     6.7450 oh         1 PE7      -0.598800
     23 HS          -0.4430    -0.0000    -1.2520 hs         1 PE7       0.225800
     24 H21          2.1760    -0.8850    -0.5110 h1         1 PE7       0.068200
     25 H22          2.1760     0.8850    -0.5110 h1         1 PE7       0.068200
     26 H31          1.9630     0.8840     1.9520 h1         1 PE7       0.039700
     27 H32          1.9630    -0.8850     1.9520 h1         1 PE7       0.039700
     28 H51          3.7820    -0.8840     3.3030 h1         1 PE7       0.036700
     29 H52          3.7810     0.8850     3.3030 h1         1 PE7       0.036700
     30 H61          6.0080     0.0010     3.9170 h1         1 PE7       0.033200
     31 H62          6.0790    -0.8840     2.3870 h1         1 PE7       0.033200
     32 H81          7.9130     1.0960     3.3750 h1         1 PE7       0.033200
     33 H82          7.9850     0.2120     1.8440 h1         1 PE7       0.033200
     34 H91          7.9450     2.3520     0.6060 h1         1 PE7       0.032700
     35 H92          9.3130     2.2940     1.7250 h1         1 PE7       0.032700
     36 H111         8.0680     4.6140     0.5710 h1         1 PE7       0.033200
     37 H112         9.4370     4.5560     1.6900 h1         1 PE7       0.033200
     38 H121         8.3460     6.7730     1.7430 h1         1 PE7       0.033200
     39 H122         6.8120     6.0080     2.1800 h1         1 PE7       0.033200
     40 H141         8.2650     8.0150     3.6350 h1         1 PE7       0.033200
     41 H142         6.7320     7.2490     4.0730 h1         1 PE7       0.033200
     42 H151         7.7320     6.4550     6.1900 h1         1 PE7       0.032700
     43 H152         7.8360     8.2160     6.0620 h1         1 PE7       0.032700
     44 H171         9.5250     8.2250     7.5720 h1         1 PE7       0.033200
     45 H172         9.4220     6.4640     7.6990 h1         1 PE7       0.033200
     46 H181        11.7860     6.2750     7.0030 h1         1 PE7       0.032700
     47 H182        11.6310     7.2790     8.4520 h1         1 PE7       0.032700
     48 H201        13.6400     8.2260     8.0100 h1         1 PE7       0.031700
     49 H202        13.7950     7.2240     6.5610 h1         1 PE7       0.031700
     50 H211        15.2500     9.2170     6.4150 h1         1 PE7       0.027700
     51 H212        13.9920     9.2610     5.1720 h1         1 PE7       0.027700
     52 HO2         14.2440    11.2620     6.3760 ho         1 PE7       0.398000
@<TRIPOS>BOND
     1     1     2 1
     2     1    23 1
     3     2     3 1
     4     2    24 1
     5     2    25 1
     6     3     4 1
     7     3    26 1
     8     3    27 1
     9     4     5 1
    10     5     6 1
    11     5    28 1
    12     5    29 1
    13     6     7 1
    14     6    30 1
    15     6    31 1
    16     7     8 1
    17     8     9 1
    18     8    32 1
    19     8    33 1
    20     9    10 1
    21     9    34 1
    22     9    35 1
    23    10    11 1
    24    11    12 1
    25    11    36 1
    26    11    37 1
    27    12    13 1
    28    12    38 1
    29    12    39 1
    30    13    14 1
    31    14    15 1
    32    14    40 1
    33    14    41 1
    34    15    16 1
    35    15    42 1
    36    15    43 1
    37    16    17 1
    38    17    18 1
    39    17    44 1
    40    17    45 1
    41    18    19 1
    42    18    46 1
    43    18    47 1
    44    19    20 1
    45    20    21 1
    46    20    48 1
    47    20    49 1
    48    21    22 1
    49    21    50 1
    50    21    51 1
    51    22    52 1
@<TRIPOS>SUBSTRUCTURE
     1 PE7         1 TEMP              0 ****  ****    0 ROOT
