@<TRIPOS>MOLECULE
PE7
   52    51     1     0     0
SMALL
bcc


@<TRIPOS>ATOM
      1 S1          0.9010   -2.7920   -2.0830 sh        1 PE7     -0.375900
      2 C2          1.5910   -2.3380   -0.5160 c3        1 PE7      0.000700
      3 C3          1.8030   -0.8400   -0.5460 c3        1 PE7      0.141400
      4 O4          2.2950   -0.4820    0.7450 os        1 PE7     -0.428600
      5 C5          2.5300    0.9210    0.8600 c3        1 PE7      0.127400
      6 C6          3.1940    1.1370    2.2160 c3        1 PE7      0.127400
      7 O7          4.5580    1.4580    1.9520 os        1 PE7     -0.428600
      8 C8          5.3360    1.5290    3.1450 c3        1 PE7      0.127400
      9 C9          6.7070    2.0570    2.7370 c3        1 PE7      0.127400
     10 O10         6.7760    3.4050    3.1990 os        1 PE7     -0.429600
     11 C11         7.9500    4.0730    2.7430 c3        1 PE7      0.127400
     12 C12         7.9790    5.4260    3.4460 c3        1 PE7      0.127400
     13 O13         9.0040    5.3460    4.4350 os        1 PE7     -0.429600
     14 C14         9.0240    6.4920    5.2840 c3        1 PE7      0.127400
     15 C15        10.2610    6.3550    6.1670 c3        1 PE7      0.127400
     16 O16        11.2070    7.3090    5.6890 os        1 PE7     -0.428600
     17 C17        12.4770    7.1740    6.3230 c3        1 PE7      0.127400
     18 C18        13.3230    8.3530    5.8520 c3        1 PE7      0.128400
     19 O19        13.4180    9.2510    6.9560 os        1 PE7     -0.438600
     20 C20        14.0390   10.4840    6.6010 c3        1 PE7      0.087400
     21 C21        14.1200   11.3030    7.8850 c3        1 PE7      0.131400
     22 O22        14.9940   10.7140    8.8250 oh        1 PE7     -0.599800
     23 HS          0.8380   -4.0990   -1.9000 hs        1 PE7      0.206800
     24 H21         2.5620   -2.8580   -0.3390 h1        1 PE7      0.073700
     25 H22         0.9000   -2.6100    0.3180 h1        1 PE7      0.073700
     26 H31         2.5560   -0.5540   -1.3290 h1        1 PE7      0.043700
     27 H32         0.8380   -0.2990   -0.7440 h1        1 PE7      0.043700
     28 H51         1.5500    1.4630    0.8120 h1        1 PE7      0.044700
     29 H52         3.1980    1.2720    0.0290 h1        1 PE7      0.044700
     30 H61         2.7110    1.9940    2.7550 h1        1 PE7      0.043700
     31 H62         3.1270    0.2100    2.8450 h1        1 PE7      0.043700
     32 H81         4.8490    2.2150    3.8880 h1        1 PE7      0.043700
     33 H82         5.4280    0.5010    3.5850 h1        1 PE7      0.043700
     34 H91         6.8320    2.0220    1.6220 h1        1 PE7      0.043700
     35 H92         7.5190    1.4580    3.2270 h1        1 PE7      0.043700
     36 H111        8.8630    3.4720    2.9960 h1        1 PE7      0.044200
     37 H112        7.8860    4.2120    1.6310 h1        1 PE7      0.044200
     38 H121        8.2340    6.2400    2.7170 h1        1 PE7      0.043700
     39 H122        6.9900    5.6460    3.9280 h1        1 PE7      0.043700
     40 H141        9.0750    7.4300    4.6700 h1        1 PE7      0.044200
     41 H142        8.0950    6.5020    5.9120 h1        1 PE7      0.044200
     42 H151       10.0080    6.5900    7.2340 h1        1 PE7      0.044200
     43 H152       10.6860    5.3190    6.0980 h1        1 PE7      0.044200
     44 H171       12.3580    7.1880    7.4390 h1        1 PE7      0.043200
     45 H172       12.9460    6.2050    6.0050 h1        1 PE7      0.043200
     46 H181       14.3530    8.0090    5.5710 h1        1 PE7      0.045200
     47 H182       12.8420    8.8640    4.9760 h1        1 PE7      0.045200
     48 H201       13.4200   11.0150    5.8320 h1        1 PE7      0.039200
     49 H202       15.0640   10.2860    6.1900 h1        1 PE7      0.039200
     50 H211       13.0960   11.4200    8.3300 h1        1 PE7      0.053700
     51 H212       14.5620   12.3110    7.6660 h1        1 PE7      0.053700
     52 HO2        14.6730    9.8170    8.9830 ho        1 PE7      0.412000
@<TRIPOS>BOND
     1    1    2 1   
     2    1   23 1   
     3    2    3 1   
     4    2   24 1   
     5    2   25 1   
     6    3    4 1   
     7    3   26 1   
     8    3   27 1   
     9    4    5 1   
    10    5    6 1   
    11    5   28 1   
    12    5   29 1   
    13    6    7 1   
    14    6   30 1   
    15    6   31 1   
    16    7    8 1   
    17    8    9 1   
    18    8   32 1   
    19    8   33 1   
    20    9   10 1   
    21    9   34 1   
    22    9   35 1   
    23   10   11 1   
    24   11   12 1   
    25   11   36 1   
    26   11   37 1   
    27   12   13 1   
    28   12   38 1   
    29   12   39 1   
    30   13   14 1   
    31   14   15 1   
    32   14   40 1   
    33   14   41 1   
    34   15   16 1   
    35   15   42 1   
    36   15   43 1   
    37   16   17 1   
    38   17   18 1   
    39   17   44 1   
    40   17   45 1   
    41   18   19 1   
    42   18   46 1   
    43   18   47 1   
    44   19   20 1   
    45   20   21 1   
    46   20   48 1   
    47   20   49 1   
    48   21   22 1   
    49   21   50 1   
    50   21   51 1   
    51   22   52 1   
@<TRIPOS>SUBSTRUCTURE
     1 PE7         1 TEMP              0 ****  ****    0 ROOT
