@<TRIPOS>MOLECULE
molecule
   59    58     1     0     0
SMALL
bcc


@<TRIPOS>ATOM
      1 O1           0.0000     0.0000     0.0000 oh         1 PE8      -0.598800
      2 C2           1.4280     0.0000     0.0000 c3         1 PE8       0.142400
      3 C3           1.9380     0.0000     1.4430 c3         1 PE8       0.128400
      4 O4           1.4610    -1.1680     2.1150 os         1 PE8      -0.381600
      5 C5           1.9670    -1.1100     3.4510 c3         1 PE8       0.125400
      6 C6           1.4910    -2.3380     4.2300 c3         1 PE8       0.126900
      7 O7           1.9690    -3.5220     3.5900 os         1 PE8      -0.384100
      8 C8           1.4930    -4.6280     4.3610 c3         1 PE8       0.126400
      9 C9           1.9720    -5.9340     3.7270 c3         1 PE8       0.126400
     10 O10          3.4000    -5.9540     3.6980 os         1 PE8      -0.384600
     11 C11          3.7840    -7.1930     3.0970 c3         1 PE8       0.126400
     12 C12          5.3110    -7.2780     3.0340 c3         1 PE8       0.126400
     13 O13          5.8470    -7.2030     4.3560 os         1 PE8      -0.383600
     14 C14          7.2660    -7.2880     4.2310 c3         1 PE8       0.126400
     15 C15          7.9060    -7.2130     5.6180 c3         1 PE8       0.126400
     16 O16          7.4340    -8.2980     6.4190 os         1 PE8      -0.384600
     17 C17          8.0640    -8.1740     7.6950 c3         1 PE8       0.126400
     18 C18          7.5980    -9.3110     8.6070 c3         1 PE8       0.126400
     19 O19          7.9510   -10.5660     8.0220 os         1 PE8      -0.384100
     20 C20          7.4920   -11.5810     8.9150 c3         1 PE8       0.126900
     21 C21          7.8410   -12.9580     8.3450 c3         1 PE8       0.125400
     22 O22          9.2580   -13.0640     8.1890 os         1 PE8      -0.381600
     23 C23          9.5180   -14.3640     7.6570 c3         1 PE8       0.128400
     24 C24         11.0260   -14.5440     7.4650 c3         1 PE8       0.142400
     25 O25         11.6850   -14.4050     8.7250 oh         1 PE8      -0.598800
     26 HO1         -0.3140     0.0920    -0.8840 ho         1 PE8       0.398000
     27 H21          1.7890     0.8850    -0.5110 h1         1 PE8       0.027700
     28 H22          1.7890    -0.8850    -0.5110 h1         1 PE8       0.027700
     29 H31          1.5760     0.8840     1.9540 h1         1 PE8       0.031700
     30 H32          3.0210     0.0000     1.4440 h1         1 PE8       0.031700
     31 H51          3.0490    -1.0940     3.4270 h1         1 PE8       0.032700
     32 H52          1.6040    -0.2110     3.9360 h1         1 PE8       0.032700
     33 H61          1.8740    -2.2940     5.2420 h1         1 PE8       0.033200
     34 H62          0.4080    -2.3530     4.2550 h1         1 PE8       0.033200
     35 H81          0.4100    -4.6130     4.3840 h1         1 PE8       0.033200
     36 H82          1.8770    -4.5550     5.3720 h1         1 PE8       0.033200
     37 H91          1.6110    -6.7730     4.3110 h1         1 PE8       0.033200
     38 H92          1.5890    -6.0070     2.7160 h1         1 PE8       0.033200
     39 H111         3.3780    -7.2490     2.0940 h1         1 PE8       0.033200
     40 H112         3.4010    -8.0160     3.6880 h1         1 PE8       0.033200
     41 H121         5.6020    -8.2170     2.5800 h1         1 PE8       0.032450
     42 H122         5.6940    -6.4560     2.4420 h1         1 PE8       0.032450
     43 H141         7.5320    -8.2270     3.7600 h1         1 PE8       0.032450
     44 H142         7.6250    -6.4650     3.6230 h1         1 PE8       0.032450
     45 H151         7.6410    -6.2740     6.0890 h1         1 PE8       0.033200
     46 H152         8.9830    -7.2770     5.5230 h1         1 PE8       0.033200
     47 H171         9.1390    -8.2250     7.5740 h1         1 PE8       0.033200
     48 H172         7.7950    -7.2220     8.1390 h1         1 PE8       0.033200
     49 H181         8.0760    -9.2160     9.5740 h1         1 PE8       0.033200
     50 H182         6.5230    -9.2590     8.7280 h1         1 PE8       0.033200
     51 H201         7.9710   -11.4580     9.8790 h1         1 PE8       0.033200
     52 H202         6.4190   -11.5010     9.0330 h1         1 PE8       0.033200
     53 H211         7.4940   -13.7290     9.0220 h1         1 PE8       0.032700
     54 H212         7.3620   -13.0820     7.3810 h1         1 PE8       0.032700
     55 H231         9.1490   -15.1160     8.3440 h1         1 PE8       0.031700
     56 H232         9.0180   -14.4700     6.7020 h1         1 PE8       0.031700
     57 H241        11.2240   -15.5290     7.0610 h1         1 PE8       0.027700
     58 H242        11.3960   -13.7910     6.7800 h1         1 PE8       0.027700
     59 H25         12.6010   -14.6050     8.6240 ho         1 PE8       0.398000
@<TRIPOS>BOND
     1     1     2 1
     2     1    26 1
     3     2     3 1
     4     2    27 1
     5     2    28 1
     6     3     4 1
     7     3    29 1
     8     3    30 1
     9     4     5 1
    10     5     6 1
    11     5    31 1
    12     5    32 1
    13     6     7 1
    14     6    33 1
    15     6    34 1
    16     7     8 1
    17     8     9 1
    18     8    35 1
    19     8    36 1
    20     9    10 1
    21     9    37 1
    22     9    38 1
    23    10    11 1
    24    11    12 1
    25    11    39 1
    26    11    40 1
    27    12    13 1
    28    12    41 1
    29    12    42 1
    30    13    14 1
    31    14    15 1
    32    14    43 1
    33    14    44 1
    34    15    16 1
    35    15    45 1
    36    15    46 1
    37    16    17 1
    38    17    18 1
    39    17    47 1
    40    17    48 1
    41    18    19 1
    42    18    49 1
    43    18    50 1
    44    19    20 1
    45    20    21 1
    46    20    51 1
    47    20    52 1
    48    21    22 1
    49    21    53 1
    50    21    54 1
    51    22    23 1
    52    23    24 1
    53    23    55 1
    54    23    56 1
    55    24    25 1
    56    24    57 1
    57    24    58 1
    58    25    59 1
@<TRIPOS>SUBSTRUCTURE
     1 PE8         1 TEMP              0 ****  ****    0 ROOT
