@<TRIPOS>MOLECULE
PE8
   59    58     1     0     0
SMALL
bcc


@<TRIPOS>ATOM
      1 O1         -0.8330    2.6360    0.7590 oh        1 PE8     -0.599800
      2 C2         -1.5090    1.3980    0.8320 c3        1 PE8      0.131400
      3 C3         -0.6600    0.2600    0.2760 c3        1 PE8      0.087400
      4 O4          0.4490    0.1230    1.1620 os        1 PE8     -0.438600
      5 C5          1.3670   -0.8800    0.7320 c3        1 PE8      0.128400
      6 C6          2.3840   -1.0480    1.8560 c3        1 PE8      0.127400
      7 O7          2.0900   -2.2940    2.4840 os        1 PE8     -0.428600
      8 C8          2.8740   -2.5070    3.6560 c3        1 PE8      0.127400
      9 C9          2.5960   -3.9360    4.1100 c3        1 PE8      0.127400
     10 O10         3.7550   -4.6980    3.7790 os        1 PE8     -0.429600
     11 C11         3.5670   -6.0930    4.0090 c3        1 PE8      0.127400
     12 C12         4.9220   -6.7560    3.7860 c3        1 PE8      0.127400
     13 O13         5.4100   -7.1220    5.0750 os        1 PE8     -0.429600
     14 C14         6.7500   -7.6090    5.0270 c3        1 PE8      0.127400
     15 C15         7.0740   -8.1270    6.4240 c3        1 PE8      0.127400
     16 O16         7.0850   -9.5510    6.3360 os        1 PE8     -0.429600
     17 C17         7.2170  -10.1700    7.6130 c3        1 PE8      0.127400
     18 C18         7.3910  -11.6630    7.3560 c3        1 PE8      0.127400
     19 O19         8.7630  -11.9600    7.6040 os        1 PE8     -0.428600
     20 C20         9.1020  -13.2950    7.2360 c3        1 PE8      0.127400
     21 C21        10.5330  -13.5250    7.7090 c3        1 PE8      0.128400
     22 O22        10.4540  -14.3870    8.8420 os        1 PE8     -0.438600
     23 C23        11.7130  -14.5480    9.4920 c3        1 PE8      0.087400
     24 C24        11.4780  -15.5330   10.6320 c3        1 PE8      0.131400
     25 O25        11.1530  -16.8200   10.1500 oh        1 PE8     -0.599800
     26 HO1        -0.0020    2.5300    1.2400 ho        1 PE8      0.412000
     27 H21        -2.4290    1.5300    0.2020 h1        1 PE8      0.053700
     28 H22        -1.7980    1.1780    1.8940 h1        1 PE8      0.053700
     29 H31        -0.2920    0.5040   -0.7550 h1        1 PE8      0.039200
     30 H32        -1.2480   -0.6950    0.2510 h1        1 PE8      0.039200
     31 H51         0.8260   -1.8430    0.5360 h1        1 PE8      0.045200
     32 H52         1.8740   -0.5330   -0.2070 h1        1 PE8      0.045200
     33 H61         2.3010   -0.2100    2.5980 h1        1 PE8      0.043200
     34 H62         3.4250   -1.0820    1.4390 h1        1 PE8      0.043200
     35 H81         3.9630   -2.3670    3.4250 h1        1 PE8      0.044200
     36 H82         2.5580   -1.7760    4.4470 h1        1 PE8      0.044200
     37 H91         1.6950   -4.3520    3.5870 h1        1 PE8      0.044200
     38 H92         2.4380   -3.9690    5.2200 h1        1 PE8      0.044200
     39 H111        2.8130   -6.4880    3.2770 h1        1 PE8      0.043700
     40 H112        3.2040   -6.2690    5.0560 h1        1 PE8      0.043700
     41 H121        5.6350   -6.0470    3.2880 h1        1 PE8      0.043700
     42 H122        4.8080   -7.6790    3.1590 h1        1 PE8      0.043700
     43 H141        7.4380   -6.7660    4.7530 h1        1 PE8      0.043700
     44 H142        6.8380   -8.4300    4.2670 h1        1 PE8      0.043700
     45 H151        8.0870   -7.7710    6.7480 h1        1 PE8      0.043700
     46 H152        6.3000   -7.7900    7.1630 h1        1 PE8      0.043700
     47 H171        6.2870   -9.9820    8.2120 h1        1 PE8      0.044200
     48 H172        8.1060   -9.7530    8.1570 h1        1 PE8      0.044200
     49 H181        7.1230  -11.9180    6.2960 h1        1 PE8      0.044200
     50 H182        6.7520  -12.2580    8.0600 h1        1 PE8      0.044200
     51 H201        8.3990  -14.0220    7.7230 h1        1 PE8      0.043200
     52 H202        9.0370  -13.3980    6.1200 h1        1 PE8      0.043200
     53 H211       11.0190  -12.5540    7.9930 h1        1 PE8      0.045200
     54 H212       11.1350  -14.0280    6.9070 h1        1 PE8      0.045200
     55 H231       12.4640  -14.9520    8.7640 h1        1 PE8      0.039200
     56 H232       12.0650  -13.5600    9.8890 h1        1 PE8      0.039200
     57 H241       12.4260  -15.6700   11.2170 h1        1 PE8      0.053700
     58 H242       10.6630  -15.1550   11.3040 h1        1 PE8      0.053700
     59 H25        10.3740  -16.7200    9.5870 ho        1 PE8      0.412000
@<TRIPOS>BOND
     1    1    2 1   
     2    1   26 1   
     3    2    3 1   
     4    2   27 1   
     5    2   28 1   
     6    3    4 1   
     7    3   29 1   
     8    3   30 1   
     9    4    5 1   
    10    5    6 1   
    11    5   31 1   
    12    5   32 1   
    13    6    7 1   
    14    6   33 1   
    15    6   34 1   
    16    7    8 1   
    17    8    9 1   
    18    8   35 1   
    19    8   36 1   
    20    9   10 1   
    21    9   37 1   
    22    9   38 1   
    23   10   11 1   
    24   11   12 1   
    25   11   39 1   
    26   11   40 1   
    27   12   13 1   
    28   12   41 1   
    29   12   42 1   
    30   13   14 1   
    31   14   15 1   
    32   14   43 1   
    33   14   44 1   
    34   15   16 1   
    35   15   45 1   
    36   15   46 1   
    37   16   17 1   
    38   17   18 1   
    39   17   47 1   
    40   17   48 1   
    41   18   19 1   
    42   18   49 1   
    43   18   50 1   
    44   19   20 1   
    45   20   21 1   
    46   20   51 1   
    47   20   52 1   
    48   21   22 1   
    49   21   53 1   
    50   21   54 1   
    51   22   23 1   
    52   23   24 1   
    53   23   55 1   
    54   23   56 1   
    55   24   25 1   
    56   24   57 1   
    57   24   58 1   
    58   25   59 1   
@<TRIPOS>SUBSTRUCTURE
     1 PE8         1 TEMP              0 ****  ****    0 ROOT
