@<TRIPOS>MOLECULE
PE9
   18    17     1     0     0
SMALL
bcc


@<TRIPOS>ATOM
      1 CAA         0.0150    0.0010   -0.0070 c3        1 PE9     -0.093100
      2 CAC         1.5220    0.0010    0.0220 c3        1 PE9     -0.079400
      3 CAE         2.0500    0.0000    1.4410 c3        1 PE9     -0.079400
      4 CAF         3.5620    0.0000    1.4610 c3        1 PE9     -0.084400
      5 CAD         4.0770   -0.0010    2.8900 c3        1 PE9      0.131400
      6 OAB         5.4950   -0.0010    2.8220 oh        1 PE9     -0.601800
      7 HAA1       -0.3520    0.0010   -1.0610 hc        1 PE9      0.033033
      8 HAA2       -0.3890   -0.9040    0.5070 hc        1 PE9      0.033033
      9 HAA3       -0.3900    0.9050    0.5080 hc        1 PE9      0.033033
     10 HAC1        1.9100   -0.9010   -0.5210 hc        1 PE9      0.040700
     11 HAC2        1.9100    0.9040   -0.5200 hc        1 PE9      0.040700
     12 HAE1        1.6640   -0.9030    1.9840 hc        1 PE9      0.038700
     13 HAE2        1.6640    0.9030    1.9850 hc        1 PE9      0.038700
     14 HAF1        3.9580    0.9030    0.9270 hc        1 PE9      0.054700
     15 HAF2        3.9580   -0.9010    0.9250 hc        1 PE9      0.054700
     16 HAD1        3.7210    0.9120    3.4400 h1        1 PE9      0.019700
     17 HAD2        3.7200   -0.9140    3.4380 h1        1 PE9      0.019700
     18 HAB         5.8140   -0.0020    3.7310 ho        1 PE9      0.398000
@<TRIPOS>BOND
     1    1    2 1   
     2    1    7 1   
     3    1    8 1   
     4    1    9 1   
     5    2    3 1   
     6    2   10 1   
     7    2   11 1   
     8    3    4 1   
     9    3   12 1   
    10    3   13 1   
    11    4    5 1   
    12    4   14 1   
    13    4   15 1   
    14    5    6 1   
    15    5   16 1   
    16    5   17 1   
    17    6   18 1   
@<TRIPOS>SUBSTRUCTURE
     1 PE9         1 TEMP              0 ****  ****    0 ROOT
