@<TRIPOS>MOLECULE
molecule
   18    17     1     0     0
SMALL
bcc


@<TRIPOS>ATOM
      1 CAA          0.0000     0.0000     0.0000 c3         1 PE9      -0.092100
      2 CAC          1.5300     0.0000     0.0000 c3         1 PE9      -0.082400
      3 CAE          2.0400     0.0000     1.4430 c3         1 PE9      -0.082400
      4 CAF          3.5700    -0.0000     1.4430 c3         1 PE9      -0.081400
      5 CAD          4.0790     0.0000     2.8850 c3         1 PE9       0.140400
      6 OAB          5.5090    -0.0000     2.8850 oh         1 PE9      -0.612800
      7 HAA1        -0.3610    -0.0000    -1.0210 hc         1 PE9       0.033033
      8 HAA2        -0.3610     0.8850     0.5110 hc         1 PE9       0.033033
      9 HAA3        -0.3610    -0.8850     0.5110 hc         1 PE9       0.033033
     10 HAC1         1.8910     0.8840    -0.5110 hc         1 PE9       0.041700
     11 HAC2         1.8910    -0.8840    -0.5110 hc         1 PE9       0.041700
     12 HAE1         1.6790    -0.8840     1.9540 hc         1 PE9       0.040700
     13 HAE2         1.6790     0.8840     1.9540 hc         1 PE9       0.040700
     14 HAF1         3.9310     0.8850     0.9320 hc         1 PE9       0.053700
     15 HAF2         3.9310    -0.8850     0.9320 hc         1 PE9       0.053700
     16 HAD1         3.7180     0.8850     3.3960 h1         1 PE9       0.018700
     17 HAD2         3.7180    -0.8850     3.3960 h1         1 PE9       0.018700
     18 HAB          5.8230    -0.0000     3.7740 ho         1 PE9       0.401000
@<TRIPOS>BOND
     1     1     2 1
     2     1     7 1
     3     1     8 1
     4     1     9 1
     5     2     3 1
     6     2    10 1
     7     2    11 1
     8     3     4 1
     9     3    12 1
    10     3    13 1
    11     4     5 1
    12     4    14 1
    13     4    15 1
    14     5     6 1
    15     5    16 1
    16     5    17 1
    17     6    18 1
@<TRIPOS>SUBSTRUCTURE
     1 PE9         1 TEMP              0 ****  ****    0 ROOT
