@<TRIPOS>MOLECULE
PEA
   21    21     1     0     0
SMALL
bcc


@<TRIPOS>ATOM
      1 C1'          0.0000     0.0000     0.0000 ca         1 PEA      -0.149300
      2 C6'          1.3830     0.0000     0.0000 ca         1 PEA      -0.084500
      3 C5'          2.0740     0.0000     1.1970 ca         1 PEA      -0.081000
      4 C4'          1.3820    -0.0000     2.3940 ca         1 PEA      -0.062000
      5 C3'         -0.0010    -0.0000     2.3940 ca         1 PEA      -0.081000
      6 C2'         -0.6910     0.0050     1.1970 ca         1 PEA      -0.084500
      7 C2          -0.7520     0.0010    -1.3050 c3         1 PEA       0.043900
      8 C1          -1.0070    -1.4420    -1.7470 c3         1 PEA      -0.057200
      9 N           -1.7410    -1.4420    -3.0200 nz         1 PEA       0.084400
     10 H6'          1.9240    -0.0020    -0.9380 ha         1 PEA       0.103000
     11 H5'          3.1570     0.0000     1.1980 ha         1 PEA       0.119000
     12 H4'          1.9240    -0.0020     3.3320 ha         1 PEA       0.119000
     13 H3'         -0.5430     0.0020     3.3320 ha         1 PEA       0.119000
     14 H2'         -1.7740     0.0050     1.1970 ha         1 PEA       0.103000
     15 H21         -0.1660     0.5120    -2.0590 hc         1 PEA       0.032700
     16 H22         -1.6990     0.5110    -1.1760 hc         1 PEA       0.032700
     17 H11         -0.0600    -1.9530    -1.8770 hx         1 PEA       0.087700
     18 H12         -1.5920    -1.9540    -0.9930 hx         1 PEA       0.087700
     19 HN1         -1.9080    -2.3850    -3.3090 hn         1 PEA       0.222467
     20 HN2         -1.2010    -0.9690    -3.7170 hn         1 PEA       0.222467
     21 HN3         -2.6160    -0.9710    -2.9000 hn         1 PEA       0.222467
@<TRIPOS>BOND
     1     1     2 ar  
     2     1     6 ar  
     3     1     7 1   
     4     2     3 ar  
     5     2    10 1   
     6     3     4 ar  
     7     3    11 1   
     8     4     5 ar  
     9     4    12 1   
    10     5     6 ar  
    11     5    13 1   
    12     6    14 1   
    13     7     8 1   
    14     7    15 1   
    15     7    16 1   
    16     8     9 1   
    17     8    17 1   
    18     8    18 1   
    19     9    19 1   
    20     9    20 1   
    21     9    21 1   
@<TRIPOS>SUBSTRUCTURE
     1 PEA         1 TEMP              0 ****  ****    0 ROOT
