@<TRIPOS>MOLECULE
PED
   23    22     1     0     0
SMALL
bcc


@<TRIPOS>ATOM
      1 P           0.3480   -0.1240   -0.1250 p5        1 PED      1.311900
      2 O1P         1.6230   -0.8630    0.1810 o         1 PED     -0.928833
      3 O2P        -0.6110    0.0000    1.0290 o         1 PED     -0.928833
      4 O3P         0.4430    1.0380   -1.0700 o         1 PED     -0.928833
      5 O5'        -0.4830   -1.3200   -1.1120 os        1 PED     -0.564200
      6 C2'        -1.3450   -6.0750   -1.6410 c3        1 PED     -0.078400
      7 C5'        -0.6940   -2.4490   -0.3600 c3        1 PED      0.160400
      8 C4'        -1.2580   -3.5750   -1.2560 c3        1 PED      0.098100
      9 O4'        -0.8900   -3.4230   -2.6150 oh        1 PED     -0.659800
     10 C3'        -0.7590   -4.9560   -0.7860 c3        1 PED      0.129100
     11 O3'        -1.1510   -5.2160    0.5600 oh        1 PED     -0.646800
     12 H2'2       -2.4410   -6.1620   -1.4250 hc        1 PED      0.044700
     13 H5'1        0.3660   -4.9790   -0.8440 h1        1 PED      0.041700
     14 H5'2        0.2820   -2.7810    0.1030 h1        1 PED      0.019700
     15 H4'1       -1.4270   -2.2330    0.4670 h1        1 PED      0.019700
     16 HO'4       -2.3840   -3.5700   -1.2200 h1        1 PED      0.013700
     17 H3'        -0.4550   -2.5540   -2.6960 ho        1 PED      0.458000
     18 H1'1        0.4120   -7.3460   -1.6600 hc        1 PED      0.017367
     19 H1'2       -0.7400   -7.6570   -0.2980 hc        1 PED      0.017367
     20 H1'3       -1.1490   -8.2090   -1.9790 hc        1 PED      0.017367
     21 H3T        -0.9800   -4.4040    1.0570 ho        1 PED      0.425000
     22 C1'        -0.6690   -7.3960   -1.3820 c3        1 PED     -0.083100
     23 H2'1       -1.2250   -5.7790   -2.7160 hc        1 PED      0.044700
@<TRIPOS>BOND
     1    1    2 1   
     2    1    3 1   
     3    1    4 1   
     4    1    5 1   
     5    5    7 1   
     6    6   10 1   
     7    6   12 1   
     8    6   22 1   
     9    6   23 1   
    10    7    8 1   
    11    7   14 1   
    12    7   15 1   
    13    8    9 1   
    14    8   10 1   
    15    8   16 1   
    16    9   17 1   
    17   10   11 1   
    18   10   13 1   
    19   11   21 1   
    20   18   22 1   
    21   19   22 1   
    22   20   22 1   
@<TRIPOS>SUBSTRUCTURE
     1 PED         1 TEMP              0 ****  ****    0 ROOT
