@<TRIPOS>MOLECULE
molecule
   23    22     1     0     0
SMALL
bcc


@<TRIPOS>ATOM
      1 P            0.0000     0.0000     0.0000 p5         1 PED       1.182900
      2 O1P          1.4800     0.0000     0.0000 o          1 PED      -0.911500
      3 O2P         -0.5380     0.0000     1.5180 o          1 PED      -0.911500
      4 O3P         -0.5360     1.3150    -0.7590 o          1 PED      -0.911500
      5 O5'         -0.5380    -1.3140    -0.7600 os         1 PED      -0.579200
      6 C2'         -1.2120    -6.0760    -1.7640 c3         1 PED      -0.098400
      7 C5'         -0.1490    -2.6390    -0.3920 c3         1 PED       0.209400
      8 C4'         -0.8380    -3.6470    -1.3140 c3         1 PED       0.124100
      9 O4'         -0.3640    -3.4720    -2.6510 oh         1 PED      -0.619800
     10 C3'         -0.5220    -5.0680    -0.8420 c3         1 PED       0.139100
     11 O3'         -0.9960    -5.2430     0.4950 oh         1 PED      -0.603800
     12 H2'2        -2.2860    -5.9760    -1.6700 hc         1 PED       0.047700
     13 H5'1         0.9260    -2.7390    -0.4860 h1         1 PED       0.021200
     14 H5'2        -0.4410    -2.8290     0.6340 h1         1 PED       0.021200
     15 H4'1        -1.9090    -3.4870    -1.2870 h1         1 PED       0.040700
     16 HO'4        -1.0230    -3.0340    -3.1630 ho         1 PED       0.402000
     17 H3'          0.5490    -5.2280    -0.8690 h1         1 PED       0.035700
     18 H1'1         0.2730    -7.5220    -1.1940 hc         1 PED       0.020367
     19 H1'2        -1.0480    -8.1800    -2.1690 hc         1 PED       0.020367
     20 H1'3        -1.3180    -7.7850    -0.4660 hc         1 PED       0.020367
     21 H3T         -0.2760    -5.4800     1.0550 ho         1 PED       0.394000
     22 C1'         -0.7960    -7.4940    -1.3690 c3         1 PED      -0.092100
     23 H2'1        -0.9190    -5.8870    -2.7900 hc         1 PED       0.047700
@<TRIPOS>BOND
     1     1     2 1
     2     1     3 1
     3     1     4 1
     4     1     5 1
     5     5     7 1
     6     6    10 1
     7     6    22 1
     8     6    23 1
     9     6    12 1
    10     7     8 1
    11     7    13 1
    12     7    14 1
    13     8     9 1
    14     8    10 1
    15     8    15 1
    16     9    16 1
    17    10    11 1
    18    10    17 1
    19    22    18 1
    20    22    19 1
    21    22    20 1
    22    11    21 1
@<TRIPOS>SUBSTRUCTURE
     1 PED         1 TEMP              0 ****  ****    0 ROOT
