@<TRIPOS>MOLECULE
PEE
  133   132     1     0     0
SMALL
bcc


@<TRIPOS>ATOM
      1 C2           1.5300     0.0000     0.0000 c3         1 PEE       0.152100
      2 C1           0.0000     0.0000     0.0000 c3         1 PEE       0.293400
      3 N           -2.5520    -3.8220     4.6360 nz         1 PEE       0.080400
      4 C3           2.0410     0.0000     1.4420 c3         1 PEE       0.234400
      5 C4          -3.4790    -3.0920     2.4900 c3         1 PEE       0.299400
      6 C5          -3.2790    -4.2730     3.4420 c3         1 PEE      -0.079200
      7 C11          2.7190    -2.2740    -2.7850 c3         1 PEE      -0.069400
      8 C12          2.8630    -1.8950    -4.2600 c3         1 PEE      -0.021400
      9 C13          3.3730    -3.1020    -5.0500 c3         1 PEE      -0.029400
     10 C14          3.5170    -2.7230    -6.5240 c3         1 PEE      -0.027400
     11 C15          4.0260    -3.9310    -7.3150 c3         1 PEE      -0.029400
     12 C16          4.1710    -3.5520    -8.7900 c3         1 PEE      -0.029400
     13 C17          4.6800    -4.7590    -9.5790 c3         1 PEE      -0.029400
     14 C18          4.8250    -4.3800   -11.0550 c3         1 PEE      -0.029400
     15 C19          5.3340    -5.5880   -11.8440 c3         1 PEE      -0.029400
     16 C20          5.4780    -5.2080   -13.3190 c3         1 PEE      -0.029400
     17 C21          5.9870    -6.4160   -14.1090 c3         1 PEE      -0.029400
     18 C22          6.1310    -6.0360   -15.5840 c3         1 PEE      -0.029400
     19 C23          6.6410    -7.2440   -16.3730 c3         1 PEE      -0.029400
     20 C24          6.7850    -6.8650   -17.8490 c3         1 PEE      -0.029400
     21 C25          7.2950    -8.0720   -18.6380 c3         1 PEE      -0.030400
     22 C26          7.4390    -7.6930   -20.1140 c3         1 PEE      -0.028400
     23 C27          7.9490    -8.9000   -20.9030 c3         1 PEE       0.005900
     24 C30          1.8110    -1.2650     3.4490 c          1 PEE       0.685100
     25 C31          1.2500    -2.4060     4.2590 c3         1 PEE      -0.062400
     26 C32          1.8030    -2.3400     5.6840 c3         1 PEE      -0.029400
     27 C33          1.2330    -3.4990     6.5050 c3         1 PEE      -0.018400
     28 C34          1.7870    -3.4320     7.9310 c3         1 PEE      -0.029400
     29 C35          1.2170    -4.5900     8.7520 c3         1 PEE      -0.027400
     30 C36          1.7700    -4.5240    10.1770 c3         1 PEE      -0.028400
     31 C37          1.2010    -5.6830    11.0000 c3         1 PEE      -0.028400
     32 C38          1.7540    -5.6170    12.4250 c3         1 PEE      -0.028400
     33 C39          1.1840    -6.7750    13.2470 c3         1 PEE      -0.028400
     34 C40          1.7360    -6.7090    14.6720 c3         1 PEE      -0.029400
     35 C41          1.1680    -7.8670    15.4940 c3         1 PEE      -0.029400
     36 C42          1.7200    -7.8020    16.9190 c3         1 PEE      -0.029400
     37 C43          1.1500    -8.9600    17.7400 c3         1 PEE      -0.028400
     38 C44          1.7040    -8.8950    19.1650 c3         1 PEE      -0.029400
     39 C45          1.1340   -10.0520    19.9880 c3         1 PEE      -0.029400
     40 C46          1.6870    -9.9860    21.4130 c3         1 PEE      -0.028400
     41 C47          1.1180   -11.1450    22.2350 c3         1 PEE       0.005900
     42 O4           1.9980    -0.0410    -2.5740 o          1 PEE      -0.597000
     43 O5           2.5740    -0.4810     3.9600 o          1 PEE      -0.605000
     44 O2           2.0140    -1.1860    -0.6840 os         1 PEE      -0.394900
     45 O3           1.4630    -1.1210     2.1610 os         1 PEE      -0.347900
     46 O1P         -2.7080    -0.2140     1.5460 o          1 PEE      -0.633500
     47 O2P         -2.7130    -1.7940    -0.4220 o          1 PEE      -0.633500
     48 O3P         -0.4750    -1.1040     0.7730 os         1 PEE      -0.493200
     49 O4P         -2.2080    -2.6440     2.0140 os         1 PEE      -0.526200
     50 P           -2.0400    -1.4130     0.9890 p5         1 PEE       0.917800
     51 H1           1.8920     0.8840    -0.5110 h1         1 PEE       0.044700
     52 H2          -0.3610    -0.0900    -1.0170 h1         1 PEE       0.003700
     53 H3          -0.3610     0.9260     0.4320 h1         1 PEE       0.003700
     54 H4          -1.5800    -4.0420     4.5380 hn         1 PEE       0.218133
     55 H5          -2.6620    -2.8330     4.7400 hn         1 PEE       0.218133
     56 H6          -2.9190    -4.2850     5.4440 hn         1 PEE       0.218133
     57 H7           3.1200    -0.0890     1.4430 h1         1 PEE       0.011700
     58 H8           1.7540     0.9260     1.9270 h1         1 PEE       0.011700
     59 H9          -3.9870    -2.2900     3.0120 h1         1 PEE       0.022200
     60 H10         -4.0760    -3.4070     1.6440 h1         1 PEE       0.022200
     61 H11         -4.2440    -4.6690     3.7340 hx         1 PEE       0.070700
     62 H12         -2.7080    -5.0460     2.9420 hx         1 PEE       0.070700
     63 H13          2.0150    -3.0910    -2.6900 hc         1 PEE       0.033700
     64 H14          3.6820    -2.5800    -2.3960 hc         1 PEE       0.033700
     65 H15          1.8990    -1.5890    -4.6500 hc         1 PEE       0.030200
     66 H16          3.5670    -1.0770    -4.3560 hc         1 PEE       0.030200
     67 H17          4.3360    -3.4090    -4.6600 hc         1 PEE       0.011700
     68 H18          2.6680    -3.9200    -4.9550 hc         1 PEE       0.011700
     69 H19          4.2220    -1.9060    -6.6200 hc         1 PEE       0.017200
     70 H20          2.5540    -2.4160    -6.9140 hc         1 PEE       0.017200
     71 H21          4.9890    -4.2380    -6.9250 hc         1 PEE       0.012700
     72 H22          3.3210    -4.7480    -7.2190 hc         1 PEE       0.012700
     73 H23          4.8760    -2.7350    -8.8850 hc         1 PEE       0.015700
     74 H24          3.2080    -3.2450    -9.1800 hc         1 PEE       0.015700
     75 H25          3.9750    -5.5760    -9.4840 hc         1 PEE       0.013700
     76 H26          5.6430    -5.0660    -9.1890 hc         1 PEE       0.013700
     77 H27          5.5300    -3.5630   -11.1500 hc         1 PEE       0.015200
     78 H28          3.8620    -4.0730   -11.4450 hc         1 PEE       0.015200
     79 H29          4.6290    -6.4050   -11.7490 hc         1 PEE       0.014200
     80 H30          6.2970    -5.8940   -11.4540 hc         1 PEE       0.014200
     81 H31          6.1830    -4.3910   -13.4150 hc         1 PEE       0.014700
     82 H32          4.5150    -4.9010   -13.7090 hc         1 PEE       0.014700
     83 H33          6.9500    -6.7220   -13.7190 hc         1 PEE       0.014200
     84 H34          5.2820    -7.2320   -14.0130 hc         1 PEE       0.014200
     85 H35          5.1680    -5.7300   -15.9740 hc         1 PEE       0.014700
     86 H36          6.8360    -5.2190   -15.6790 hc         1 PEE       0.014700
     87 H37          5.9370    -8.0610   -16.2770 hc         1 PEE       0.014700
     88 H38          7.6050    -7.5490   -15.9830 hc         1 PEE       0.014700
     89 H39          7.4890    -6.0470   -17.9450 hc         1 PEE       0.014700
     90 H40          5.8220    -6.5590   -18.2390 hc         1 PEE       0.014700
     91 H41          6.5910    -8.8900   -18.5420 hc         1 PEE       0.014700
     92 H42          8.2580    -8.3780   -18.2480 hc         1 PEE       0.014700
     93 H43          6.4750    -7.3880   -20.5030 hc         1 PEE       0.011700
     94 H44          8.1430    -6.8760   -20.2090 hc         1 PEE       0.011700
     95 H45          8.0440    -8.6340   -21.9480 hc         1 PEE       0.000033
     96 H46          7.2480    -9.7200   -20.8010 hc         1 PEE       0.000033
     97 H47          8.9150    -9.2020   -20.5170 hc         1 PEE       0.000033
     98 H48          1.5360    -3.3460     3.8040 hc         1 PEE       0.017200
     99 H49          0.1700    -2.3320     4.2870 hc         1 PEE       0.017200
    100 H50          2.8830    -2.4140     5.6560 hc         1 PEE       0.038200
    101 H51          1.5170    -1.3990     6.1390 hc         1 PEE       0.038200
    102 H52          1.5190    -4.4390     6.0500 hc         1 PEE      -0.009300
    103 H53          0.1530    -3.4250     6.5340 hc         1 PEE      -0.009300
    104 H54          1.5010    -2.4920     8.3860 hc         1 PEE       0.024700
    105 H55          2.8670    -3.5070     7.9020 hc         1 PEE       0.024700
    106 H56          1.5020    -5.5310     8.2970 hc         1 PEE       0.006700
    107 H57          0.1360    -4.5160     8.7800 hc         1 PEE       0.006700
    108 H58          2.8500    -4.5980    10.1490 hc         1 PEE       0.019200
    109 H59          1.4840    -3.5840    10.6320 hc         1 PEE       0.019200
    110 H60          1.4870    -6.6230    10.5450 hc         1 PEE       0.011700
    111 H61          0.1200    -5.6090    11.0280 hc         1 PEE       0.011700
    112 H62          2.8340    -5.6910    12.3970 hc         1 PEE       0.016700
    113 H63          1.4680    -4.6760    12.8800 hc         1 PEE       0.016700
    114 H64          0.1030    -6.7010    13.2750 hc         1 PEE       0.013700
    115 H65          1.4690    -7.7160    12.7920 hc         1 PEE       0.013700
    116 H66          2.8170    -6.7830    14.6440 hc         1 PEE       0.015700
    117 H67          1.4500    -5.7690    15.1270 hc         1 PEE       0.015700
    118 H68          0.0870    -7.7940    15.5220 hc         1 PEE       0.014200
    119 H69          1.4540    -8.8080    15.0380 hc         1 PEE       0.014200
    120 H70          2.8010    -7.8760    16.8910 hc         1 PEE       0.015200
    121 H71          1.4350    -6.8610    17.3740 hc         1 PEE       0.015200
    122 H72          0.0700    -8.8850    17.7690 hc         1 PEE       0.014200
    123 H73          1.4350    -9.9000    17.2850 hc         1 PEE       0.014200
    124 H74          1.4190    -7.9540    19.6210 hc         1 PEE       0.014700
    125 H75          2.7840    -8.9690    19.1370 hc         1 PEE       0.014700
    126 H76          0.0540    -9.9780    20.0160 hc         1 PEE       0.014700
    127 H77          1.4200   -10.9930    19.5330 hc         1 PEE       0.014700
    128 H78          2.7680   -10.0600    21.3850 hc         1 PEE       0.012200
    129 H79          1.4010    -9.0460    21.8680 hc         1 PEE       0.012200
    130 H80          1.4710   -11.0710    23.2560 hc         1 PEE       0.000367
    131 H81          0.0350   -11.0990    22.2220 hc         1 PEE       0.000367
    132 H82          1.4440   -12.0860    21.8070 hc         1 PEE       0.000367
    133 C10          2.2180    -1.0860    -2.0070 c          1 PEE       0.696100
@<TRIPOS>BOND
     1     1     2 1   
     2     1     4 1   
     3     1    44 1   
     4     1    51 1   
     5     2    48 1   
     6     2    52 1   
     7     2    53 1   
     8     3     6 1   
     9     3    54 1   
    10     3    55 1   
    11     3    56 1   
    12     4    45 1   
    13     4    57 1   
    14     4    58 1   
    15     5     6 1   
    16     5    49 1   
    17     5    59 1   
    18     5    60 1   
    19     6    61 1   
    20     6    62 1   
    21     7     8 1   
    22     7    63 1   
    23     7    64 1   
    24     7   133 1   
    25     8     9 1   
    26     8    65 1   
    27     8    66 1   
    28     9    10 1   
    29     9    67 1   
    30     9    68 1   
    31    10    11 1   
    32    10    69 1   
    33    10    70 1   
    34    11    12 1   
    35    11    71 1   
    36    11    72 1   
    37    12    13 1   
    38    12    73 1   
    39    12    74 1   
    40    13    14 1   
    41    13    75 1   
    42    13    76 1   
    43    14    15 1   
    44    14    77 1   
    45    14    78 1   
    46    15    16 1   
    47    15    79 1   
    48    15    80 1   
    49    16    17 1   
    50    16    81 1   
    51    16    82 1   
    52    17    18 1   
    53    17    83 1   
    54    17    84 1   
    55    18    19 1   
    56    18    85 1   
    57    18    86 1   
    58    19    20 1   
    59    19    87 1   
    60    19    88 1   
    61    20    21 1   
    62    20    89 1   
    63    20    90 1   
    64    21    22 1   
    65    21    91 1   
    66    21    92 1   
    67    22    23 1   
    68    22    93 1   
    69    22    94 1   
    70    23    95 1   
    71    23    96 1   
    72    23    97 1   
    73    24    25 1   
    74    24    43 2   
    75    24    45 1   
    76    25    26 1   
    77    25    98 1   
    78    25    99 1   
    79    26    27 1   
    80    26   100 1   
    81    26   101 1   
    82    27    28 1   
    83    27   102 1   
    84    27   103 1   
    85    28    29 1   
    86    28   104 1   
    87    28   105 1   
    88    29    30 1   
    89    29   106 1   
    90    29   107 1   
    91    30    31 1   
    92    30   108 1   
    93    30   109 1   
    94    31    32 1   
    95    31   110 1   
    96    31   111 1   
    97    32    33 1   
    98    32   112 1   
    99    32   113 1   
   100    33    34 1   
   101    33   114 1   
   102    33   115 1   
   103    34    35 1   
   104    34   116 1   
   105    34   117 1   
   106    35    36 1   
   107    35   118 1   
   108    35   119 1   
   109    36    37 1   
   110    36   120 1   
   111    36   121 1   
   112    37    38 1   
   113    37   122 1   
   114    37   123 1   
   115    38    39 1   
   116    38   124 1   
   117    38   125 1   
   118    39    40 1   
   119    39   126 1   
   120    39   127 1   
   121    40    41 1   
   122    40   128 1   
   123    40   129 1   
   124    41   130 1   
   125    41   131 1   
   126    41   132 1   
   127    42   133 2   
   128    44   133 1   
   129    46    50 1   
   130    47    50 1   
   131    48    50 1   
   132    49    50 1   
@<TRIPOS>SUBSTRUCTURE
     1 PEE         1 TEMP              0 ****  ****    0 ROOT
