@<TRIPOS>MOLECULE
molecule
  133   132     1     0     0
SMALL
bcc


@<TRIPOS>ATOM
      1 C2           1.5300     0.0000     0.0000 c3         1 PEE       0.140100
      2 C1           0.0000     0.0000     0.0000 c3         1 PEE       0.212400
      3 N           -2.5520    -3.8220     4.6360 nz         1 PEE      -0.804600
      4 C3           2.0410     0.0000     1.4420 c3         1 PEE       0.161400
      5 C4          -3.4790    -3.0920     2.4900 c3         1 PEE       0.199400
      6 C5          -3.2790    -4.2730     3.4420 c3         1 PEE       0.081800
      7 C11          2.7190    -2.2740    -2.7850 c3         1 PEE      -0.124400
      8 C12          2.8630    -1.8950    -4.2600 c3         1 PEE      -0.072400
      9 C13          3.3730    -3.1020    -5.0500 c3         1 PEE      -0.083400
     10 C14          3.5170    -2.7230    -6.5240 c3         1 PEE      -0.080400
     11 C15          4.0260    -3.9310    -7.3150 c3         1 PEE      -0.082400
     12 C16          4.1710    -3.5520    -8.7900 c3         1 PEE      -0.081400
     13 C17          4.6800    -4.7590    -9.5790 c3         1 PEE      -0.082400
     14 C18          4.8250    -4.3800   -11.0550 c3         1 PEE      -0.082400
     15 C19          5.3340    -5.5880   -11.8440 c3         1 PEE      -0.081400
     16 C20          5.4780    -5.2080   -13.3190 c3         1 PEE      -0.082400
     17 C21          5.9870    -6.4160   -14.1090 c3         1 PEE      -0.082400
     18 C22          6.1310    -6.0360   -15.5840 c3         1 PEE      -0.082400
     19 C23          6.6410    -7.2440   -16.3730 c3         1 PEE      -0.082400
     20 C24          6.7850    -6.8650   -17.8490 c3         1 PEE      -0.082400
     21 C25          7.2950    -8.0720   -18.6380 c3         1 PEE      -0.081400
     22 C26          7.4390    -7.6930   -20.1140 c3         1 PEE      -0.084400
     23 C27          7.9490    -8.9000   -20.9030 c3         1 PEE      -0.092100
     24 C30          1.8110    -1.2650     3.4490 c          1 PEE       0.627100
     25 C31          1.2500    -2.4060     4.2590 c3         1 PEE      -0.123400
     26 C32          1.8030    -2.3400     5.6840 c3         1 PEE      -0.079400
     27 C33          1.2330    -3.4990     6.5050 c3         1 PEE      -0.080400
     28 C34          1.7870    -3.4320     7.9310 c3         1 PEE      -0.081400
     29 C35          1.2170    -4.5900     8.7520 c3         1 PEE      -0.082400
     30 C36          1.7700    -4.5240    10.1770 c3         1 PEE      -0.081400
     31 C37          1.2010    -5.6830    11.0000 c3         1 PEE      -0.082400
     32 C38          1.7540    -5.6170    12.4250 c3         1 PEE      -0.081400
     33 C39          1.1840    -6.7750    13.2470 c3         1 PEE      -0.081400
     34 C40          1.7360    -6.7090    14.6720 c3         1 PEE      -0.081400
     35 C41          1.1680    -7.8670    15.4940 c3         1 PEE      -0.082400
     36 C42          1.7200    -7.8020    16.9190 c3         1 PEE      -0.081400
     37 C43          1.1500    -8.9600    17.7400 c3         1 PEE      -0.081400
     38 C44          1.7040    -8.8950    19.1650 c3         1 PEE      -0.082400
     39 C45          1.1340   -10.0520    19.9880 c3         1 PEE      -0.081400
     40 C46          1.6870    -9.9860    21.4130 c3         1 PEE      -0.084400
     41 C47          1.1180   -11.1450    22.2350 c3         1 PEE      -0.092100
     42 O4           1.9980    -0.0410    -2.5740 o          1 PEE      -0.558000
     43 O5           2.5740    -0.4810     3.9600 o          1 PEE      -0.563000
     44 O2           2.0140    -1.1860    -0.6840 os         1 PEE      -0.409900
     45 O3           1.4630    -1.1210     2.1610 os         1 PEE      -0.368900
     46 O1P         -2.7080    -0.2140     1.5460 o          1 PEE      -0.794000
     47 O2P         -2.7130    -1.7940    -0.4220 o          1 PEE      -0.794000
     48 O3P         -0.4750    -1.1040     0.7730 os         1 PEE      -0.589200
     49 O4P         -2.2080    -2.6440     2.0140 os         1 PEE      -0.608200
     50 P           -2.0400    -1.4130     0.9890 p5         1 PEE       1.329800
     51 H1           1.8920     0.8840    -0.5110 h1         1 PEE       0.085700
     52 H2          -0.3610    -0.0900    -1.0170 h1         1 PEE       0.053200
     53 H3          -0.3610     0.9260     0.4320 h1         1 PEE       0.053200
     54 H4          -1.5800    -4.0420     4.5380 hn         1 PEE       0.452467
     55 H5          -2.6620    -2.8330     4.7400 hn         1 PEE       0.452467
     56 H6          -2.9190    -4.2850     5.4440 hn         1 PEE       0.452467
     57 H7           3.1200    -0.0890     1.4430 h1         1 PEE       0.055700
     58 H8           1.7540     0.9260     1.9270 h1         1 PEE       0.055700
     59 H9          -3.9870    -2.2900     3.0120 h1         1 PEE       0.076700
     60 H10         -4.0760    -3.4070     1.6440 h1         1 PEE       0.076700
     61 H11         -4.2440    -4.6690     3.7340 hx         1 PEE       0.102200
     62 H12         -2.7080    -5.0460     2.9420 hx         1 PEE       0.102200
     63 H13          2.0150    -3.0910    -2.6900 hc         1 PEE       0.070700
     64 H14          3.6820    -2.5800    -2.3960 hc         1 PEE       0.070700
     65 H15          1.8990    -1.5890    -4.6500 hc         1 PEE       0.059700
     66 H16          3.5670    -1.0770    -4.3560 hc         1 PEE       0.059700
     67 H17          4.3360    -3.4090    -4.6600 hc         1 PEE       0.039200
     68 H18          2.6680    -3.9200    -4.9550 hc         1 PEE       0.039200
     69 H19          4.2220    -1.9060    -6.6200 hc         1 PEE       0.044700
     70 H20          2.5540    -2.4160    -6.9140 hc         1 PEE       0.044700
     71 H21          4.9890    -4.2380    -6.9250 hc         1 PEE       0.039700
     72 H22          3.3210    -4.7480    -7.2190 hc         1 PEE       0.039700
     73 H23          4.8760    -2.7350    -8.8850 hc         1 PEE       0.042200
     74 H24          3.2080    -3.2450    -9.1800 hc         1 PEE       0.042200
     75 H25          3.9750    -5.5760    -9.4840 hc         1 PEE       0.040200
     76 H26          5.6430    -5.0660    -9.1890 hc         1 PEE       0.040200
     77 H27          5.5300    -3.5630   -11.1500 hc         1 PEE       0.041200
     78 H28          3.8620    -4.0730   -11.4450 hc         1 PEE       0.041200
     79 H29          4.6290    -6.4050   -11.7490 hc         1 PEE       0.040700
     80 H30          6.2970    -5.8940   -11.4540 hc         1 PEE       0.040700
     81 H31          6.1830    -4.3910   -13.4150 hc         1 PEE       0.041200
     82 H32          4.5150    -4.9010   -13.7090 hc         1 PEE       0.041200
     83 H33          6.9500    -6.7220   -13.7190 hc         1 PEE       0.040700
     84 H34          5.2820    -7.2320   -14.0130 hc         1 PEE       0.040700
     85 H35          5.1680    -5.7300   -15.9740 hc         1 PEE       0.041200
     86 H36          6.8360    -5.2190   -15.6790 hc         1 PEE       0.041200
     87 H37          5.9370    -8.0610   -16.2770 hc         1 PEE       0.040700
     88 H38          7.6050    -7.5490   -15.9830 hc         1 PEE       0.040700
     89 H39          7.4890    -6.0470   -17.9450 hc         1 PEE       0.040700
     90 H40          5.8220    -6.5590   -18.2390 hc         1 PEE       0.040700
     91 H41          6.5910    -8.8900   -18.5420 hc         1 PEE       0.040700
     92 H42          8.2580    -8.3780   -18.2480 hc         1 PEE       0.040700
     93 H43          6.4750    -7.3880   -20.5030 hc         1 PEE       0.039700
     94 H44          8.1430    -6.8760   -20.2090 hc         1 PEE       0.039700
     95 H45          8.0440    -8.6340   -21.9480 hc         1 PEE       0.032367
     96 H46          7.2480    -9.7200   -20.8010 hc         1 PEE       0.032367
     97 H47          8.9150    -9.2020   -20.5170 hc         1 PEE       0.032367
     98 H48          1.5360    -3.3460     3.8040 hc         1 PEE       0.052700
     99 H49          0.1700    -2.3320     4.2870 hc         1 PEE       0.052700
    100 H50          2.8830    -2.4140     5.6560 hc         1 PEE       0.068700
    101 H51          1.5170    -1.3990     6.1390 hc         1 PEE       0.068700
    102 H52          1.5190    -4.4390     6.0500 hc         1 PEE       0.018700
    103 H53          0.1530    -3.4250     6.5340 hc         1 PEE       0.018700
    104 H54          1.5010    -2.4920     8.3860 hc         1 PEE       0.053200
    105 H55          2.8670    -3.5070     7.9020 hc         1 PEE       0.053200
    106 H56          1.5020    -5.5310     8.2970 hc         1 PEE       0.033700
    107 H57          0.1360    -4.5160     8.7800 hc         1 PEE       0.033700
    108 H58          2.8500    -4.5980    10.1490 hc         1 PEE       0.046200
    109 H59          1.4840    -3.5840    10.6320 hc         1 PEE       0.046200
    110 H60          1.4870    -6.6230    10.5450 hc         1 PEE       0.038700
    111 H61          0.1200    -5.6090    11.0280 hc         1 PEE       0.038700
    112 H62          2.8340    -5.6910    12.3970 hc         1 PEE       0.043700
    113 H63          1.4680    -4.6760    12.8800 hc         1 PEE       0.043700
    114 H64          0.1030    -6.7010    13.2750 hc         1 PEE       0.040200
    115 H65          1.4690    -7.7160    12.7920 hc         1 PEE       0.040200
    116 H66          2.8170    -6.7830    14.6440 hc         1 PEE       0.042200
    117 H67          1.4500    -5.7690    15.1270 hc         1 PEE       0.042200
    118 H68          0.0870    -7.7940    15.5220 hc         1 PEE       0.040200
    119 H69          1.4540    -8.8080    15.0380 hc         1 PEE       0.040200
    120 H70          2.8010    -7.8760    16.8910 hc         1 PEE       0.041700
    121 H71          1.4350    -6.8610    17.3740 hc         1 PEE       0.041700
    122 H72          0.0700    -8.8850    17.7690 hc         1 PEE       0.040700
    123 H73          1.4350    -9.9000    17.2850 hc         1 PEE       0.040700
    124 H74          1.4190    -7.9540    19.6210 hc         1 PEE       0.041200
    125 H75          2.7840    -8.9690    19.1370 hc         1 PEE       0.041200
    126 H76          0.0540    -9.9780    20.0160 hc         1 PEE       0.040700
    127 H77          1.4200   -10.9930    19.5330 hc         1 PEE       0.040700
    128 H78          2.7680   -10.0600    21.3850 hc         1 PEE       0.040200
    129 H79          1.4010    -9.0460    21.8680 hc         1 PEE       0.040200
    130 H80          1.4710   -11.0710    23.2560 hc         1 PEE       0.032700
    131 H81          0.0350   -11.0990    22.2220 hc         1 PEE       0.032700
    132 H82          1.4440   -12.0860    21.8070 hc         1 PEE       0.032700
    133 C10          2.2180    -1.0860    -2.0070 c          1 PEE       0.633100
@<TRIPOS>BOND
     1    46    50 1
     2    47    50 1
     3    50    48 1
     4    50    49 1
     5    48     2 1
     6    49     5 1
     7     5     6 1
     8     2     1 1
     9    42   133 2
    10     6     3 1
    11     1    44 1
    12     1     4 1
    13   133    44 1
    14   133     7 1
    15     4    45 1
    16    45    24 1
    17     7     8 1
    18    24    25 1
    19    24    43 2
    20    25    26 1
    21     8     9 1
    22     9    10 1
    23    26    27 1
    24    27    28 1
    25    10    11 1
    26    11    12 1
    27    28    29 1
    28    12    13 1
    29    13    14 1
    30    29    30 1
    31    30    31 1
    32    14    15 1
    33    32    31 1
    34    32    33 1
    35    15    16 1
    36    33    34 1
    37    34    35 1
    38    16    17 1
    39    35    36 1
    40    37    36 1
    41    37    38 1
    42    17    18 1
    43    19    18 1
    44    19    20 1
    45    23    22 1
    46    21    20 1
    47    21    22 1
    48    38    39 1
    49    39    40 1
    50    40    41 1
    51     1    51 1
    52     2    52 1
    53     2    53 1
    54     3    54 1
    55     3    55 1
    56     3    56 1
    57     4    57 1
    58     4    58 1
    59     5    59 1
    60     5    60 1
    61     6    61 1
    62     6    62 1
    63     7    63 1
    64     7    64 1
    65     8    65 1
    66     8    66 1
    67     9    67 1
    68     9    68 1
    69    10    69 1
    70    10    70 1
    71    11    71 1
    72    11    72 1
    73    12    73 1
    74    12    74 1
    75    13    75 1
    76    13    76 1
    77    14    77 1
    78    14    78 1
    79    15    79 1
    80    15    80 1
    81    16    81 1
    82    16    82 1
    83    17    83 1
    84    17    84 1
    85    18    85 1
    86    18    86 1
    87    19    87 1
    88    19    88 1
    89    20    89 1
    90    20    90 1
    91    21    91 1
    92    21    92 1
    93    22    93 1
    94    22    94 1
    95    23    95 1
    96    23    96 1
    97    23    97 1
    98    25    98 1
    99    25    99 1
   100    26   100 1
   101    26   101 1
   102    27   102 1
   103    27   103 1
   104    28   104 1
   105    28   105 1
   106    29   106 1
   107    29   107 1
   108    30   108 1
   109    30   109 1
   110    31   110 1
   111    31   111 1
   112    32   112 1
   113    32   113 1
   114    33   114 1
   115    33   115 1
   116    34   116 1
   117    34   117 1
   118    35   118 1
   119    35   119 1
   120    36   120 1
   121    36   121 1
   122    37   122 1
   123    37   123 1
   124    38   124 1
   125    38   125 1
   126    39   126 1
   127    39   127 1
   128    40   128 1
   129    40   129 1
   130    41   130 1
   131    41   131 1
   132    41   132 1
@<TRIPOS>SUBSTRUCTURE
     1 PEE         1 TEMP              0 ****  ****    0 ROOT
