@<TRIPOS>MOLECULE
PEG
   17    16     1     0     0
SMALL
bcc


@<TRIPOS>ATOM
      1 C1         -0.0930    0.1620   -0.0280 c3        1 PEG      0.131400
      2 O1          1.3120    0.0300   -0.0870 oh        1 PEG     -0.597800
      3 C2         -0.6070    0.0660    1.4050 c3        1 PEG      0.088400
      4 O2         -0.1280    1.2290    2.0780 os        1 PEG     -0.447600
      5 C3         -0.4700    1.2370    3.4630 c3        1 PEG      0.088400
      6 C4          0.0300    2.5670    4.0160 c3        1 PEG      0.131400
      7 O4         -0.6930    3.6570    3.4850 oh        1 PEG     -0.597800
      8 H11        -0.4920   -0.6950   -0.6320 h1        1 PEG      0.054200
      9 H12        -0.4100    1.1370   -0.4850 h1        1 PEG      0.054200
     10 HO1         1.6830    0.7210    0.4760 ho        1 PEG      0.412000
     11 H21        -0.2080   -0.8540    1.9100 h1        1 PEG      0.041200
     12 H22        -1.7280    0.0520    1.4240 h1        1 PEG      0.041200
     13 H31         0.0300    0.3790    3.9820 h1        1 PEG      0.041200
     14 H32        -1.5830    1.1520    3.5770 h1        1 PEG      0.041200
     15 H41        -0.1490    2.6090    5.1230 h1        1 PEG      0.054200
     16 H42         1.1250    2.6860    3.7990 h1        1 PEG      0.054200
     17 HO4        -0.6060    3.6110    2.5240 ho        1 PEG      0.412000
@<TRIPOS>BOND
     1    1    2 1   
     2    1    3 1   
     3    1    8 1   
     4    1    9 1   
     5    2   10 1   
     6    3    4 1   
     7    3   11 1   
     8    3   12 1   
     9    4    5 1   
    10    5    6 1   
    11    5   13 1   
    12    5   14 1   
    13    6    7 1   
    14    6   15 1   
    15    6   16 1   
    16    7   17 1   
@<TRIPOS>SUBSTRUCTURE
     1 PEG         1 TEMP              0 ****  ****    0 ROOT
