@<TRIPOS>MOLECULE
molecule
   17    16     1     0     0
SMALL
bcc


@<TRIPOS>ATOM
      1 C1           0.0000     0.0000     0.0000 c3         1 PEG       0.143900
      2 O1           1.4290     0.0000     0.0000 oh         1 PEG      -0.600800
      3 C2          -0.5110     0.0000     1.4430 c3         1 PEG       0.141400
      4 O2          -0.1330     1.2210     2.0820 os         1 PEG      -0.406600
      5 C3          -0.5630     1.3230     3.4400 c3         1 PEG       0.141400
      6 C4          -0.1060     2.6630     4.0210 c3         1 PEG       0.143900
      7 O4          -0.7650     3.7290     3.3340 oh         1 PEG      -0.600800
      8 H11         -0.3610    -0.8840    -0.5110 h1         1 PEG       0.029700
      9 H12         -0.3610     0.8840    -0.5110 h1         1 PEG       0.029700
     10 HO1          1.7430    -0.0630    -0.8870 ho         1 PEG       0.399000
     11 H21         -1.5900    -0.0890     1.4430 h1         1 PEG       0.029700
     12 H22         -0.0790    -0.8370     1.9780 h1         1 PEG       0.029700
     13 H31         -1.6440     1.2610     3.4820 h1         1 PEG       0.029700
     14 H32         -0.1330     0.5130     4.0170 h1         1 PEG       0.029700
     15 H41          0.9660     2.7620     3.8990 h1         1 PEG       0.029700
     16 H42         -0.3550     2.7030     5.0740 h1         1 PEG       0.029700
     17 HO4         -0.5310     4.5510     3.7320 ho         1 PEG       0.399000
@<TRIPOS>BOND
     1     1     2 1
     2     1     3 1
     3     1     8 1
     4     1     9 1
     5     2    10 1
     6     3     4 1
     7     3    11 1
     8     3    12 1
     9     4     5 1
    10     5     6 1
    11     5    13 1
    12     5    14 1
    13     6     7 1
    14     6    15 1
    15     6    16 1
    16     7    17 1
@<TRIPOS>SUBSTRUCTURE
     1 PEG         1 TEMP              0 ****  ****    0 ROOT
