@<TRIPOS>MOLECULE
PEH
  132   131     1     0     0
SMALL
bcc


@<TRIPOS>ATOM
      1 P          -0.3360    0.7230    1.2090 p5        1 PEH      1.427800
      2 N          -0.0490    4.3110    2.0680 n3        1 PEH     -0.907800
      3 O11         0.9260    0.3140    0.2300 os        1 PEH     -0.560200
      4 O12         0.5800    1.3180    2.4660 os        1 PEH     -0.591200
      5 O13        -0.9640   -0.5310    1.6590 o         1 PEH     -0.827000
      6 O14        -1.0160    1.9090    0.6570 o         1 PEH     -0.827000
      7 C11        -0.1090    2.1210    3.3710 c3        1 PEH      0.161400
      8 C12         0.3140    3.5990    3.2680 c3        1 PEH      0.132800
      9 C1          1.5590   -0.8620    0.6420 c3        1 PEH      0.181400
     10 C2          2.8280   -1.0410   -0.2020 c3        1 PEH      0.135100
     11 C3          3.8730    0.0430    0.0510 c3        1 PEH      0.126400
     12 O31         4.0140    0.2070    1.4670 os        1 PEH     -0.442900
     13 O32         4.6170    2.3400    1.1650 o         1 PEH     -0.560000
     14 C31         4.1720    1.4860    1.9360 c         1 PEH      0.653100
     15 C32         3.7600    1.6160    3.3660 c3        1 PEH     -0.149400
     16 C33         4.2800    2.8930    3.9850 c3        1 PEH     -0.074400
     17 C34         3.7310    3.0710    5.3840 c3        1 PEH     -0.080400
     18 C35         4.2610    4.3380    6.0220 c3        1 PEH     -0.078400
     19 C36         3.7100    4.5200    7.4200 c3        1 PEH     -0.079400
     20 C37         4.2380    5.7860    8.0590 c3        1 PEH     -0.078400
     21 C38         3.6870    5.9690    9.4570 c3        1 PEH     -0.079400
     22 C39         4.2160    7.2350   10.0950 c3        1 PEH     -0.078400
     23 C3A         3.6640    7.4180   11.4930 c3        1 PEH     -0.079400
     24 C3B         4.1930    8.6840   12.1320 c3        1 PEH     -0.078400
     25 C3C         3.6410    8.8670   13.5300 c3        1 PEH     -0.079400
     26 C3D         4.1690   10.1330   14.1680 c3        1 PEH     -0.078400
     27 C3E         3.6180   10.3160   15.5660 c3        1 PEH     -0.079400
     28 C3F         4.1460   11.5820   16.2050 c3        1 PEH     -0.079400
     29 C3G         3.5950   11.7650   17.6020 c3        1 PEH     -0.079400
     30 C3H         4.1220   13.0310   18.2420 c3        1 PEH     -0.080400
     31 C3I         3.5760   13.2170   19.6340 c3        1 PEH     -0.092100
     32 O21         3.3420   -2.3350    0.1790 os        1 PEH     -0.425900
     33 O22         4.4540   -2.4570   -1.7690 o         1 PEH     -0.563000
     34 C21         4.1640   -2.9810   -0.6900 c         1 PEH      0.633100
     35 C22         4.6270   -4.3040   -0.1530 c3        1 PEH     -0.130400
     36 C23         4.7470   -5.3280   -1.2600 c3        1 PEH     -0.078400
     37 C24         5.3470   -6.6170   -0.7410 c3        1 PEH     -0.078400
     38 C25         5.4520   -7.6510   -1.8400 c3        1 PEH     -0.079400
     39 C26         6.0560   -8.9400   -1.3250 c3        1 PEH     -0.078400
     40 C27         6.1610   -9.9750   -2.4250 c3        1 PEH     -0.079400
     41 C28         6.7660  -11.2640   -1.9110 c3        1 PEH     -0.078400
     42 C29         6.8700  -12.2990   -3.0110 c3        1 PEH     -0.079400
     43 C2A         7.4750  -13.5880   -2.4970 c3        1 PEH     -0.078400
     44 C2B         7.5800  -14.6230   -3.5970 c3        1 PEH     -0.079400
     45 C2C         8.1850  -15.9120   -3.0830 c3        1 PEH     -0.079400
     46 C2D         8.2890  -16.9460   -4.1830 c3        1 PEH     -0.079400
     47 C2E         8.8940  -18.2350   -3.6700 c3        1 PEH     -0.078400
     48 C2F         8.9990  -19.2700   -4.7690 c3        1 PEH     -0.079400
     49 C2G         9.6040  -20.5590   -4.2560 c3        1 PEH     -0.079400
     50 C2H         9.7090  -21.5950   -5.3550 c3        1 PEH     -0.080400
     51 C2I        10.3110  -22.8800   -4.8490 c3        1 PEH     -0.092100
     52 HN1         0.5380    4.0220    1.3070 hn        1 PEH      0.361800
     53 HN2        -0.9930    4.0860    1.8050 hn        1 PEH      0.361800
     54 H111        0.1410    1.7620    4.4110 h1        1 PEH      0.014700
     55 H112       -1.2190    2.0250    3.2100 h1        1 PEH      0.014700
     56 H121        1.4320    3.6510    3.3940 h1        1 PEH      0.027200
     57 H122       -0.1600    4.1390    4.1370 h1        1 PEH      0.027200
     58 H11         1.8220   -0.7850    1.7320 h1        1 PEH      0.051200
     59 H12         0.8640   -1.7320    0.4920 h1        1 PEH      0.051200
     60 H2          2.5800   -1.0410   -1.2980 h1        1 PEH      0.080700
     61 H31         3.5300    1.0000   -0.4240 h1        1 PEH      0.068200
     62 H32         4.8730   -0.2630   -0.3530 h1        1 PEH      0.068200
     63 H321        4.1120    0.7190    3.9390 hc        1 PEH      0.101700
     64 H322        2.6270    1.6010    3.3700 hc        1 PEH      0.101700
     65 H331        3.9790    3.7640    3.3430 hc        1 PEH      0.049700
     66 H332        5.4010    2.8750    4.0130 hc        1 PEH      0.049700
     67 H341        2.6090    3.1110    5.3410 hc        1 PEH      0.043200
     68 H342        4.0080    2.1860    6.0150 hc        1 PEH      0.043200
     69 H351        3.9810    5.2210    5.3890 hc        1 PEH      0.039200
     70 H352        5.3810    4.3000    6.0610 hc        1 PEH      0.039200
     71 H361        2.5890    4.5590    7.3790 hc        1 PEH      0.040200
     72 H362        3.9870    3.6350    8.0520 hc        1 PEH      0.040200
     73 H371        5.3590    5.7480    8.0980 hc        1 PEH      0.038700
     74 H372        3.9600    6.6700    7.4260 hc        1 PEH      0.038700
     75 H381        2.5670    6.0070    9.4160 hc        1 PEH      0.039200
     76 H382        3.9650    5.0840   10.0890 hc        1 PEH      0.039200
     77 H391        3.9380    8.1190    9.4630 hc        1 PEH      0.038200
     78 H392        5.3360    7.1970   10.1350 hc        1 PEH      0.038200
     79 H3A1        2.5440    7.4560   11.4530 hc        1 PEH      0.039200
     80 H3A2        3.9420    6.5340   12.1250 hc        1 PEH      0.039200
     81 H3B1        5.3130    8.6460   12.1710 hc        1 PEH      0.038700
     82 H3B2        3.9140    9.5680   11.4990 hc        1 PEH      0.038700
     83 H3C1        2.5210    8.9050   13.4890 hc        1 PEH      0.039200
     84 H3C2        3.9190    7.9830   14.1620 hc        1 PEH      0.039200
     85 H3D1        3.8910   11.0170   13.5360 hc        1 PEH      0.039200
     86 H3D2        5.2900   10.0960   14.2080 hc        1 PEH      0.039200
     87 H3E1        2.4970   10.3540   15.5260 hc        1 PEH      0.039200
     88 H3E2        3.8960    9.4320   16.1980 hc        1 PEH      0.039200
     89 H3F1        3.8680   12.4660   15.5720 hc        1 PEH      0.039200
     90 H3F2        5.2660   11.5450   16.2440 hc        1 PEH      0.039200
     91 H3G1        3.8730   10.8810   18.2350 hc        1 PEH      0.039200
     92 H3G2        2.4740   11.8030   17.5630 hc        1 PEH      0.039200
     93 H3H1        5.2430   12.9920   18.2790 hc        1 PEH      0.038200
     94 H3H2        3.8440   13.9140   17.6070 hc        1 PEH      0.038200
     95 H3I1        2.4610   13.2830   19.6150 hc        1 PEH      0.031367
     96 H3I2        3.9760   14.1560   20.0870 hc        1 PEH      0.031367
     97 H3I3        3.8630   12.3590   20.2880 hc        1 PEH      0.031367
     98 H221        5.6230   -4.1360    0.3360 hc        1 PEH      0.075200
     99 H222        3.9130   -4.6580    0.6370 hc        1 PEH      0.075200
    100 H231        5.3840   -4.9120   -2.0860 hc        1 PEH      0.056700
    101 H232        3.7330   -5.5300   -1.6960 hc        1 PEH      0.056700
    102 H241        4.7130   -7.0170    0.0940 hc        1 PEH      0.039200
    103 H242        6.3650   -6.4140   -0.3160 hc        1 PEH      0.039200
    104 H251        4.4330   -7.8560   -2.2630 hc        1 PEH      0.042200
    105 H252        6.0810   -7.2480   -2.6770 hc        1 PEH      0.042200
    106 H261        7.0750   -8.7360   -0.9030 hc        1 PEH      0.038700
    107 H262        5.4270   -9.3430   -0.4890 hc        1 PEH      0.038700
    108 H271        6.7900   -9.5720   -3.2620 hc        1 PEH      0.040200
    109 H272        5.1410  -10.1800   -2.8470 hc        1 PEH      0.040200
    110 H281        6.1360  -11.6670   -1.0740 hc        1 PEH      0.039200
    111 H282        7.7850  -11.0590   -1.4890 hc        1 PEH      0.039200
    112 H291        5.8510  -12.5040   -3.4320 hc        1 PEH      0.039200
    113 H292        7.4990  -11.8960   -3.8480 hc        1 PEH      0.039200
    114 H2A1        8.4940  -13.3830   -2.0750 hc        1 PEH      0.039200
    115 H2A2        6.8460  -13.9910   -1.6600 hc        1 PEH      0.039200
    116 H2B1        8.2090  -14.2190   -4.4340 hc        1 PEH      0.039200
    117 H2B2        6.5610  -14.8280   -4.0190 hc        1 PEH      0.039200
    118 H2C1        7.5560  -16.3150   -2.2460 hc        1 PEH      0.039200
    119 H2C2        9.2040  -15.7070   -2.6610 hc        1 PEH      0.039200
    120 H2D1        7.2700  -17.1510   -4.6050 hc        1 PEH      0.039200
    121 H2D2        8.9180  -16.5430   -5.0200 hc        1 PEH      0.039200
    122 H2E1        8.2650  -18.6390   -2.8330 hc        1 PEH      0.039200
    123 H2E2        9.9140  -18.0300   -3.2480 hc        1 PEH      0.039200
    124 H2F1        7.9800  -19.4750   -5.1910 hc        1 PEH      0.039200
    125 H2F2        9.6280  -18.8660   -5.6060 hc        1 PEH      0.039200
    126 H2G1        8.9750  -20.9620   -3.4190 hc        1 PEH      0.039200
    127 H2G2       10.6230  -20.3550   -3.8340 hc        1 PEH      0.039200
    128 H2H1       10.3370  -21.1890   -6.1920 hc        1 PEH      0.038200
    129 H2H2        8.6890  -21.7970   -5.7770 hc        1 PEH      0.038200
    130 H2I1       10.3790  -23.6290   -5.6740 hc        1 PEH      0.031367
    131 H2I2        9.6850  -23.3130   -4.0310 hc        1 PEH      0.031367
    132 H2I3       11.3380  -22.7030   -4.4470 hc        1 PEH      0.031367
@<TRIPOS>BOND
     1    1    3 1
     2    1    4 1
     3    1    5 1
     4    1    6 1
     5    2    8 1
     6    2   52 1
     7    2   53 1
     8    3    9 1
     9    4    7 1
    10    7    8 1
    11    7   54 1
    12    7   55 1
    13    8   56 1
    14    8   57 1
    15    9   10 1
    16    9   58 1
    17    9   59 1
    18   10   11 1
    19   10   32 1
    20   10   60 1
    21   11   12 1
    22   11   61 1
    23   11   62 1
    24   12   14 1
    25   13   14 2
    26   14   15 1
    27   15   16 1
    28   15   63 1
    29   15   64 1
    30   16   17 1
    31   16   65 1
    32   16   66 1
    33   17   18 1
    34   17   67 1
    35   17   68 1
    36   18   19 1
    37   18   69 1
    38   18   70 1
    39   19   20 1
    40   19   71 1
    41   19   72 1
    42   20   21 1
    43   20   73 1
    44   20   74 1
    45   21   22 1
    46   21   75 1
    47   21   76 1
    48   22   23 1
    49   22   77 1
    50   22   78 1
    51   23   24 1
    52   23   79 1
    53   23   80 1
    54   24   25 1
    55   24   81 1
    56   24   82 1
    57   25   26 1
    58   25   83 1
    59   25   84 1
    60   26   27 1
    61   26   85 1
    62   26   86 1
    63   27   28 1
    64   27   87 1
    65   27   88 1
    66   28   29 1
    67   28   89 1
    68   28   90 1
    69   29   30 1
    70   29   91 1
    71   29   92 1
    72   30   31 1
    73   30   93 1
    74   30   94 1
    75   31   95 1
    76   31   96 1
    77   31   97 1
    78   32   34 1
    79   33   34 2
    80   34   35 1
    81   35   36 1
    82   35   98 1
    83   35   99 1
    84   36   37 1
    85   36  100 1
    86   36  101 1
    87   37   38 1
    88   37  102 1
    89   37  103 1
    90   38   39 1
    91   38  104 1
    92   38  105 1
    93   39   40 1
    94   39  106 1
    95   39  107 1
    96   40   41 1
    97   40  108 1
    98   40  109 1
    99   41   42 1
   100   41  110 1
   101   41  111 1
   102   42   43 1
   103   42  112 1
   104   42  113 1
   105   43   44 1
   106   43  114 1
   107   43  115 1
   108   44   45 1
   109   44  116 1
   110   44  117 1
   111   45   46 1
   112   45  118 1
   113   45  119 1
   114   46   47 1
   115   46  120 1
   116   46  121 1
   117   47   48 1
   118   47  122 1
   119   47  123 1
   120   48   49 1
   121   48  124 1
   122   48  125 1
   123   49   50 1
   124   49  126 1
   125   49  127 1
   126   50   51 1
   127   50  128 1
   128   50  129 1
   129   51  130 1
   130   51  131 1
   131   51  132 1
@<TRIPOS>SUBSTRUCTURE
     1 PEH         1 TEMP              0 ****  ****    0 ROOT
