@<TRIPOS>MOLECULE
PEI
   16    15     1     0     0
SMALL
bcc


@<TRIPOS>ATOM
      1 C1          0.0070    0.0000   -0.0190 c3        1 PEI     -0.086100
      2 C2          1.5140    0.0000    0.0120 c3        1 PEI     -0.082400
      3 C3          2.0490   -0.0000    1.4290 c3        1 PEI     -0.062400
      4 C4          3.5560    0.0000    1.4630 c3        1 PEI     -0.193400
      5 C5          4.1120   -0.0000    2.8970 c         1 PEI      0.907600
      6 O1          5.3710   -0.0030    3.0280 o         1 PEI     -0.854800
      7 O2          3.3070    0.0020    3.8730 o         1 PEI     -0.854800
      8 H11        -0.3680    0.0000   -1.0710 hc        1 PEI      0.018700
      9 H12        -0.3950   -0.9040    0.4990 hc        1 PEI      0.018700
     10 H13        -0.3950    0.9040    0.4990 hc        1 PEI      0.018700
     11 H21         1.9000   -0.9010   -0.5340 hc        1 PEI      0.022700
     12 H22         1.9000    0.9020   -0.5330 hc        1 PEI      0.022700
     13 H31         1.6690    0.8980    1.9820 hc        1 PEI      0.043700
     14 H32         1.6690   -0.8990    1.9820 hc        1 PEI      0.043700
     15 H41         3.9550   -0.9020    0.9340 hc        1 PEI      0.018700
     16 H42         3.9550    0.9030    0.9350 hc        1 PEI      0.018700
@<TRIPOS>BOND
     1    1    2 1   
     2    1    8 1   
     3    1    9 1   
     4    1   10 1   
     5    2    3 1   
     6    2   11 1   
     7    2   12 1   
     8    3    4 1   
     9    3   13 1   
    10    3   14 1   
    11    4    5 1   
    12    4   15 1   
    13    4   16 1   
    14    5    6 1   
    15    5    7 1   
@<TRIPOS>SUBSTRUCTURE
     1 PEI         1 TEMP              0 ****  ****    0 ROOT
