@<TRIPOS>MOLECULE
molecule
   16    15     1     0     0
SMALL
bcc


@<TRIPOS>ATOM
      1 C1           0.0000     0.0000     0.0000 c3         1 PEI      -0.090100
      2 C2           1.5290     0.0000     0.0000 c3         1 PEI      -0.091400
      3 C3           2.0400     0.0000     1.4420 c3         1 PEI      -0.063400
      4 C4           3.5690    -0.0000     1.4420 c3         1 PEI      -0.183400
      5 C5           4.0730    -0.0000     2.8610 c          1 PEI       0.890600
      6 O1           5.3920    -0.0000     3.1070 o          1 PEI      -0.858800
      7 O2           3.2880     0.0000     3.7800 o          1 PEI      -0.858800
      8 H11         -0.3610    -0.0000    -1.0210 hc         1 PEI       0.020367
      9 H12         -0.3610     0.8850     0.5110 hc         1 PEI       0.020367
     10 H13         -0.3610    -0.8850     0.5110 hc         1 PEI       0.020367
     11 H21          1.8900     0.8840    -0.5110 hc         1 PEI       0.026700
     12 H22          1.8900    -0.8840    -0.5110 hc         1 PEI       0.026700
     13 H31          1.6790     0.8840     1.9530 hc         1 PEI       0.044700
     14 H32          1.6790    -0.8840     1.9530 hc         1 PEI       0.044700
     15 H41          3.9300    -0.8840     0.9310 hc         1 PEI       0.025700
     16 H42          3.9300     0.8840     0.9310 hc         1 PEI       0.025700
@<TRIPOS>BOND
     1     1     2 1
     2     1     8 1
     3     1     9 1
     4     1    10 1
     5     2     3 1
     6     2    11 1
     7     2    12 1
     8     3     4 1
     9     3    13 1
    10     3    14 1
    11     4     5 1
    12     4    15 1
    13     4    16 1
    14     5     6 1
    15     5     7 1
@<TRIPOS>SUBSTRUCTURE
     1 PEI         1 TEMP              0 ****  ****    0 ROOT
