@<TRIPOS>MOLECULE
PEJ
    5     4     1     0     0
SMALL
bcc


@<TRIPOS>ATOM
      1 I          -0.0000    0.0000    0.0000 i         1 PEJ      1.119000
      2 O1         -0.0000   -1.6140   -1.1410 o         1 PEJ     -0.530000
      3 O2          0.0000    1.6140   -1.1410 o         1 PEJ     -0.530000
      4 O3         -1.6140    0.0000    1.1410 o         1 PEJ     -0.530000
      5 O4          1.6140   -0.0000    1.1410 o         1 PEJ     -0.530000
@<TRIPOS>BOND
     1    1    2 1
     2    1    3 1
     3    1    4 1
     4    1    5 1
@<TRIPOS>SUBSTRUCTURE
     1 PEJ         1 TEMP              0 ****  ****    0 ROOT
