@<TRIPOS>MOLECULE
PEK
  130   119     1     0     0
SMALL
bcc


@<TRIPOS>ATOM
      1 P           3.5910   -0.3690    1.1500 p5        1 PEK      1.935000
      2 N          -0.9220   -3.6170    2.6310 n1        1 PEK     -0.120000
      3 C01         6.6250   -3.0950   -1.5620 c1        1 PEK     -0.069000
      4 C02         5.1820   -2.9430   -1.4310 c3        1 PEK     -0.139000
      5 C03         4.8220   -1.6820   -0.6570 c1        1 PEK      0.046000
      6 C04         3.3770   -1.8130    3.3080 c3        1 PEK     -0.028000
      7 C05         0.0060   -2.9500    2.4270 c1        1 PEK     -0.170000
      8 O01         4.5830   -4.0990   -0.8050 os        1 PEK     -0.250000
      9 O04         9.2640    1.0520    2.8220 o         1 PEK     -0.374000
     10 O11         3.9910   -1.8180    0.3120 os        1 PEK     -0.571000
     11 O12         2.7060   -1.1840    2.2580 os        1 PEK     -0.748000
     12 O13         4.8580    0.0460    1.7840 o         1 PEK     -0.807500
     13 O14         2.6790    0.4000    0.3090 o         1 PEK     -0.807500
     14 C1          4.3970   -5.2120   -1.5610 c2        1 PEK      0.310000
     15 C2          3.8610   -6.3620   -0.7610 c3        1 PEK     -0.165000
     16 C3          3.1400   -7.3580   -1.6430 c3        1 PEK     -0.152000
     17 C4          2.7010   -8.5620   -0.8270 c3        1 PEK     -0.058000
     18 C5          2.0130   -9.5350   -1.6240 c1        1 PEK     -0.153000
     19 C6          1.4370  -10.3540   -2.2790 c1        1 PEK     -0.230000
     20 C7          7.8250   -5.8040   -3.0060 c3        1 PEK     -0.142667
     21 C8          8.6230   -6.8800   -2.5170 c1        1 PEK     -0.131667
     22 C9          9.2970   -7.7800   -2.1050 c1        1 PEK     -0.272333
     23 C10        10.2270   -0.6550    0.0090 c3        1 PEK     -0.142667
     24 C11        11.4660   -1.3490   -0.1260 c1        1 PEK     -0.131667
     25 C12        12.5070   -1.9300   -0.2390 c1        1 PEK     -0.272333
     26 C13        12.5930   -3.6130   -3.4870 c3        1 PEK     -0.142667
     27 C14        13.6650   -3.1690   -4.3180 c1        1 PEK     -0.131667
     28 C15        14.5630   -2.7940   -5.0140 c1        1 PEK     -0.272333
     29 C16        13.9220   -7.5120   -3.2370 c3        1 PEK     -0.208000
     30 C17        12.5360   -7.5090   -3.8250 c3        1 PEK     -0.172000
     31 C18        12.2460   -8.7920   -4.5760 c3        1 PEK     -0.136000
     32 C19        10.8340   -8.7890   -5.1300 c3        1 PEK     -0.257000
     33 C20        10.4310  -10.0700   -5.6640 c1        1 PEK     -0.059000
     34 C21         8.0590    0.8300    2.6410 c2        1 PEK      0.315000
     35 C22         6.9090    1.2960    3.4750 c3        1 PEK     -0.206000
     36 C23         7.3380    2.3010    4.5190 c3        1 PEK     -0.150000
     37 C24         6.1810    2.6850    5.4150 c3        1 PEK     -0.160000
     38 C25         6.5910    3.7430    6.4170 c3        1 PEK     -0.157000
     39 C26         5.4390    4.1190    7.3230 c3        1 PEK     -0.158000
     40 C27         5.8470    5.1830    8.3190 c3        1 PEK     -0.157000
     41 C28         4.6970    5.5580    9.2280 c3        1 PEK     -0.158000
     42 C29         5.1050    6.6270   10.2190 c3        1 PEK     -0.157000
     43 C30         3.9560    7.0010   11.1300 c3        1 PEK     -0.158000
     44 C31         4.3640    8.0750   12.1150 c3        1 PEK     -0.157000
     45 C32         3.2160    8.4490   13.0290 c3        1 PEK     -0.158000
     46 C33         3.6250    9.5290   14.0080 c3        1 PEK     -0.157000
     47 C34         2.4790    9.9030   14.9240 c3        1 PEK     -0.157000
     48 C35         2.8870   10.9910   15.8950 c3        1 PEK     -0.162000
     49 C36         1.7440   11.3610   16.8150 c3        1 PEK     -0.139000
     50 C37         2.1480   12.4700   17.7680 c3        1 PEK     -0.248000
     51 C38         1.1380   12.7420   18.7710 c1        1 PEK     -0.045000
     52 HN1         3.8520    0.5160    4.7390 ha        1 PEK      0.004500
     53 HN2         4.3110    0.9030    4.4240 ha        1 PEK      0.004500
     54 H011        7.6610    0.0160   -0.8890 ha        1 PEK      0.004500
     55 H012        6.8440   -0.0590    1.4370 ho        1 PEK      0.288000
     56 H02         7.1440   -2.2020   -1.9470 ha        1 PEK      0.060000
     57 H031        6.9990   -0.1330   -0.8600 ha        1 PEK      0.004500
     58 H032        4.7240   -2.8130   -2.4640 h1        1 PEK      0.164000
     59 H041        4.4530   -1.4980    3.3400 h1        1 PEK      0.063667
     60 H042        2.8690   -1.5270    4.2670 h1        1 PEK      0.063667
     61 H051        0.8700   -2.3290    2.2390 ha        1 PEK      0.285000
     62 H052        3.3010   -2.9260    3.1790 h1        1 PEK      0.063667
     63 H21         2.9070   -3.8980    0.8730 ha        1 PEK      0.004500
     64 H22         2.3590   -3.8600    1.2710 ha        1 PEK      0.004500
     65 H31         4.7330   -6.8470   -0.2470 hc        1 PEK      0.119500
     66 H32         3.1750   -5.9630    0.0340 hc        1 PEK      0.119500
     67 H41         2.2470   -6.8700   -2.1130 hc        1 PEK      0.101500
     68 H42         3.8170   -7.6810   -2.4770 hc        1 PEK      0.101500
     69 H5          2.0270   -8.2230    0.0090 hc        1 PEK      0.099500
     70 H6          3.6030   -9.0430   -0.3530 hc        1 PEK      0.099500
     71 H71         6.8080   -6.1660   -3.3140 hc        1 PEK      0.110556
     72 H72         0.9260  -11.0770   -2.8600 ha        1 PEK      0.217000
     73 H8          7.6750   -5.0170   -2.2100 hc        1 PEK      0.110556
     74 H9          8.3140   -5.3230   -3.8910 hc        1 PEK      0.110556
     75 H101       10.1870   -0.0770    0.9740 hc        1 PEK      0.110556
     76 H102        9.8890   -8.5700   -1.7200 ha        1 PEK      0.213333
     77 H11         9.3600   -1.3690    0.0150 hc        1 PEK      0.110556
     78 H12        10.0820    0.0640   -0.8380 hc        1 PEK      0.110556
     79 H131       12.6010   -3.0690   -2.5050 hc        1 PEK      0.110556
     80 H132       13.4300   -2.4410   -0.3280 ha        1 PEK      0.213333
     81 H14        12.6820   -4.7140   -3.2850 hc        1 PEK      0.110556
     82 H15        11.6060   -3.4240   -3.9840 hc        1 PEK      0.110556
     83 H161       14.1160   -6.5520   -2.7000 hc        1 PEK      0.071000
     84 H162       15.3570   -2.4590   -5.6290 ha        1 PEK      0.213333
     85 H171       14.0420   -8.3530   -2.5120 hc        1 PEK      0.071000
     86 H172       14.6910   -7.6300   -4.0390 hc        1 PEK      0.071000
     87 H181       11.7770   -7.3760   -3.0070 hc        1 PEK      0.084000
     88 H182       12.4240   -6.6350   -4.5210 hc        1 PEK      0.084000
     89 H191       12.3770   -9.6720   -3.8940 hc        1 PEK      0.085500
     90 H192       12.9770   -8.9120   -5.4170 hc        1 PEK      0.085500
     91 H201       10.7160   -7.9320   -5.8510 hc        1 PEK      0.124000
     92 H202       10.1040   -8.5840   -4.2790 hc        1 PEK      0.124000
     93 H203        9.5640  -10.0370   -6.3460 ha        1 PEK      0.028000
     94 H221        7.2720   -2.6550    0.5060 ha        1 PEK      0.004500
     95 H222        7.0660   -2.0110    0.4100 ha        1 PEK      0.004500
     96 H231        6.4380    0.3920    3.9510 hc        1 PEK      0.138500
     97 H232        6.1170    1.7250    2.7970 hc        1 PEK      0.138500
     98 H241        7.7460    3.2140    4.0110 hc        1 PEK      0.086000
     99 H242        8.1730    1.8710    5.1340 hc        1 PEK      0.086000
    100 H251        5.3300    3.0640    4.7890 hc        1 PEK      0.082500
    101 H252        5.8070    1.7760    5.9570 hc        1 PEK      0.082500
    102 H261        7.4480    3.3640    7.0340 hc        1 PEK      0.077000
    103 H262        6.9540    4.6540    5.8720 hc        1 PEK      0.077000
    104 H271        4.5800    4.4910    6.7050 hc        1 PEK      0.079500
    105 H272        5.0790    3.2080    7.8720 hc        1 PEK      0.079500
    106 H281        6.2040    6.0940    7.7690 hc        1 PEK      0.076500
    107 H282        6.7080    4.8110    8.9350 hc        1 PEK      0.076500
    108 H291        3.8340    5.9250    8.6110 hc        1 PEK      0.079500
    109 H292        4.3430    4.6480    9.7810 hc        1 PEK      0.079500
    110 H301        5.9680    6.2600   10.8330 hc        1 PEK      0.077500
    111 H302        5.4570    7.5370    9.6650 hc        1 PEK      0.077500
    112 H311        3.6070    6.0920   11.6880 hc        1 PEK      0.079500
    113 H312        3.0900    7.3630   10.5150 hc        1 PEK      0.079500
    114 H321        5.2310    7.7130   12.7280 hc        1 PEK      0.078000
    115 H322        4.7110    8.9840   11.5560 hc        1 PEK      0.078000
    116 H331        2.8730    7.5420   13.5920 hc        1 PEK      0.080000
    117 H332        2.3480    8.8060   12.4150 hc        1 PEK      0.080000
    118 H341        4.4950    9.1730   14.6190 hc        1 PEK      0.078000
    119 H342        3.9670   10.4370   13.4440 hc        1 PEK      0.078000
    120 H351        2.1410    8.9980   15.4930 hc        1 PEK      0.081500
    121 H352        1.6070   10.2540   14.3120 hc        1 PEK      0.081500
    122 H361        3.2230   11.8970   15.3250 hc        1 PEK      0.075500
    123 H362        3.7630   10.6410   16.5030 hc        1 PEK      0.075500
    124 H371        1.4170   10.4640   17.4040 hc        1 PEK      0.093000
    125 H372        0.8630   11.6970   16.2080 hc        1 PEK      0.093000
    126 H381        2.4680   13.3730   17.1760 hc        1 PEK      0.110000
    127 H382        3.0560   12.1380   18.3620 hc        1 PEK      0.110000
    128 H383        1.1930   13.7440   19.2280 ha        1 PEK      0.027000
    129 O03         7.8070    0.0600    1.5500 oh        1 PEK     -0.328000
    130 O02         4.6570   -5.1780   -2.7690 o         1 PEK     -0.391000
@<TRIPOS>BOND
     1    1   10 1   
     2    1   11 1   
     3    1   12 1   
     4    1   13 1   
     5    2    7 1   
     6    3    4 1   
     7    3   56 1   
     8    4    5 1   
     9    4    8 1   
    10    4   58 1   
    11    5   10 1   
    12    6   11 1   
    13    6   59 1   
    14    6   60 1   
    15    6   62 1   
    16    7   61 1   
    17    8   14 1   
    18    9   34 1   
    19   14   15 1   
    20   14  130 1   
    21   15   16 1   
    22   15   65 1   
    23   15   66 1   
    24   16   17 1   
    25   16   67 1   
    26   16   68 1   
    27   17   18 1   
    28   17   69 1   
    29   17   70 1   
    30   18   19 1   
    31   19   72 1   
    32   20   21 1   
    33   20   71 1   
    34   20   73 1   
    35   20   74 1   
    36   21   22 1   
    37   22   76 1   
    38   23   24 1   
    39   23   75 1   
    40   23   77 1   
    41   23   78 1   
    42   24   25 1   
    43   25   80 1   
    44   26   27 1   
    45   26   79 1   
    46   26   81 1   
    47   26   82 1   
    48   27   28 1   
    49   28   84 1   
    50   29   30 1   
    51   29   83 1   
    52   29   85 1   
    53   29   86 1   
    54   30   31 1   
    55   30   87 1   
    56   30   88 1   
    57   31   32 1   
    58   31   89 1   
    59   31   90 1   
    60   32   33 1   
    61   32   91 1   
    62   32   92 1   
    63   33   93 1   
    64   34   35 1   
    65   34  129 1   
    66   35   36 1   
    67   35   96 1   
    68   35   97 1   
    69   36   37 1   
    70   36   98 1   
    71   36   99 1   
    72   37   38 1   
    73   37  100 1   
    74   37  101 1   
    75   38   39 1   
    76   38  102 1   
    77   38  103 1   
    78   39   40 1   
    79   39  104 1   
    80   39  105 1   
    81   40   41 1   
    82   40  106 1   
    83   40  107 1   
    84   41   42 1   
    85   41  108 1   
    86   41  109 1   
    87   42   43 1   
    88   42  110 1   
    89   42  111 1   
    90   43   44 1   
    91   43  112 1   
    92   43  113 1   
    93   44   45 1   
    94   44  114 1   
    95   44  115 1   
    96   45   46 1   
    97   45  116 1   
    98   45  117 1   
    99   46   47 1   
   100   46  118 1   
   101   46  119 1   
   102   47   48 1   
   103   47  120 1   
   104   47  121 1   
   105   48   49 1   
   106   48  122 1   
   107   48  123 1   
   108   49   50 1   
   109   49  124 1   
   110   49  125 1   
   111   50   51 1   
   112   50  126 1   
   113   50  127 1   
   114   51  128 1   
   115   52   53 1   
   116   54   57 1   
   117   55  129 1   
   118   63   64 1   
   119   94   95 1   
@<TRIPOS>SUBSTRUCTURE
     1 PEK         1 TEMP              0 ****  ****    0 ROOT
