@<TRIPOS>MOLECULE
molecule
   19    19     1     0     0
SMALL
bcc


@<TRIPOS>ATOM
      1 C1'          0.0000     0.0000     0.0000 ca         1 PEL      -0.087300
      2 C2'          1.3810     0.0000     0.0000 ca         1 PEL      -0.123000
      3 C3'          2.0720     0.0000     1.1970 ca         1 PEL      -0.127000
      4 C4'          1.3810     0.0010     2.3940 ca         1 PEL      -0.129000
      5 C5'         -0.0000     0.0020     2.3940 ca         1 PEL      -0.127000
      6 C6'         -0.6910     0.0050     1.1970 ca         1 PEL      -0.123000
      7 CA          -0.7530     0.0010    -1.3040 c3         1 PEL      -0.034100
      8 C           -1.0100    -1.4410    -1.7470 c3         1 PEL       0.143400
      9 OXT         -1.7240    -1.4410    -2.9850 oh         1 PEL      -0.614800
     10 H2           1.9220    -0.0020    -0.9380 ha         1 PEL       0.131000
     11 H3           3.1550    -0.0000     1.1970 ha         1 PEL       0.130000
     12 H4           1.9220    -0.0010     3.3320 ha         1 PEL       0.129000
     13 H5          -0.5420     0.0040     3.3320 ha         1 PEL       0.130000
     14 H6          -1.7750     0.0050     1.1970 ha         1 PEL       0.131000
     15 HA1         -0.1680     0.5110    -2.0590 hc         1 PEL       0.060700
     16 HA2         -1.7000     0.5120    -1.1750 hc         1 PEL       0.060700
     17 H11         -0.0640    -1.9530    -1.8760 h1         1 PEL       0.022700
     18 H12         -1.5960    -1.9520    -0.9920 h1         1 PEL       0.022700
     19 HXT         -1.8810    -2.3300    -3.2570 ho         1 PEL       0.403000
@<TRIPOS>BOND
     1     1     2 ar
     2     1     6 ar
     3     1     7 1
     4     2     3 ar
     5     2    10 1
     6     3     4 ar
     7     3    11 1
     8     4     5 ar
     9     4    12 1
    10     5     6 ar
    11     5    13 1
    12     6    14 1
    13     7     8 1
    14     7    15 1
    15     7    16 1
    16     8     9 1
    17     8    17 1
    18     8    18 1
    19     9    19 1
@<TRIPOS>SUBSTRUCTURE
     1 PEL         1 TEMP              0 ****  ****    0 ROOT
