@<TRIPOS>MOLECULE
molecule
   44    45     1     0     0
SMALL
bcc


@<TRIPOS>ATOM
      1 C1           0.0000     0.0000     0.0000 ca         1 PEM      -0.148600
      2 C2           1.3790     0.0000     0.0000 ca         1 PEM      -0.079000
      3 C3           2.0520     0.0000     1.2210 ca         1 PEM      -0.130500
      4 C4           1.3310    -0.0000     2.4150 ca         1 PEM       0.035400
      5 C5          -0.0630    -0.0000     2.3880 ca         1 PEM      -0.130500
      6 C6          -0.7360    -0.0000     1.1660 ca         1 PEM      -0.079000
      7 Cl           2.1620     0.0000     3.9230 cl         1 PEM      -0.110400
      8 C7          -0.7170     0.0000    -1.3010 c          1 PEM       0.675700
      9 O1          -0.1620     0.4680    -2.2930 o          1 PEM      -0.608100
     10 N1          -1.9860    -0.5670    -1.3010 ns         1 PEM      -0.576900
     11 C8          -2.7940    -0.6630    -2.4860 c3         1 PEM       0.114000
     12 C9          -3.6880     0.5670    -2.6840 c3         1 PEM      -0.048100
     13 C10         -6.3810     1.2640     0.5610 ca         1 PEM       0.164100
     14 C11         -6.7760     0.4610    -0.5040 ca         1 PEM      -0.182000
     15 C12         -5.8980     0.2340    -1.5630 ca         1 PEM      -0.117000
     16 C13         -4.6270     0.8100    -1.5520 ca         1 PEM      -0.150300
     17 C14         -4.2360     1.6140    -0.4810 ca         1 PEM      -0.117000
     18 C15         -5.1150     1.8410     0.5780 ca         1 PEM      -0.182000
     19 C16         -6.6550     1.7100     2.8810 c3         1 PEM       0.044800
     20 C17         -5.8230     0.4820     3.2380 c3         1 PEM      -0.073600
     21 C18         -7.7820     1.9590     3.8810 c3         1 PEM      -0.073600
     22 C19         -5.7770     2.9450     2.7210 c          1 PEM       0.870600
     23 O3          -4.6640     2.9170     3.4960 o          1 PEM      -0.832300
     24 O4          -6.0300     3.8810     1.9730 o          1 PEM      -0.832300
     25 H21          1.9300     0.0000    -0.9330 ha         1 PEM       0.157500
     26 H31          3.1350     0.0000     1.2430 ha         1 PEM       0.148500
     27 H51         -0.6240    -0.0010     3.3150 ha         1 PEM       0.148500
     28 HC6         -1.8190    -0.0010     1.1330 ha         1 PEM       0.157500
     29 HN1         -2.3510    -0.9250    -0.4410 hn         1 PEM       0.323500
     30 HC81        -3.4210    -1.5430    -2.4130 h1         1 PEM       0.044700
     31 HC82        -2.1440    -0.7660    -3.3460 h1         1 PEM       0.044700
     32 HC91        -3.0550     1.4390    -2.8020 hc         1 PEM       0.047700
     33 HC92        -4.2660     0.4330    -3.5900 hc         1 PEM       0.047700
     34 H11         -7.7630     0.0140    -0.5120 ha         1 PEM       0.178000
     35 H12         -6.2020    -0.3910    -2.3950 ha         1 PEM       0.117500
     36 H14         -3.2500     2.0620    -0.4710 ha         1 PEM       0.117500
     37 H15         -4.8130     2.4660     1.4110 ha         1 PEM       0.178000
     38 H171        -6.3770    -0.4150     2.9880 hc         1 PEM       0.033200
     39 H172        -4.8950     0.5010     2.6810 hc         1 PEM       0.033200
     40 H173        -5.6070     0.4890     4.3000 hc         1 PEM       0.033200
     41 H181        -7.3590     2.2100     4.8460 hc         1 PEM       0.033200
     42 H182        -8.3990     2.7780     3.5330 hc         1 PEM       0.033200
     43 H183        -8.3870     1.0650     3.9730 hc         1 PEM       0.033200
     44 O2          -7.2440     1.4880     1.5990 os         1 PEM      -0.343900
@<TRIPOS>BOND
     1     1     2 ar
     2     1     6 ar
     3     1     8 1
     4     2     3 ar
     5     2    25 1
     6     3     4 ar
     7     3    26 1
     8     4     5 ar
     9     4     7 1
    10     5     6 ar
    11     5    27 1
    12     6    28 1
    13     8     9 2
    14     8    10 1
    15    10    11 1
    16    10    29 1
    17    11    12 1
    18    11    30 1
    19    11    31 1
    20    12    16 1
    21    12    32 1
    22    12    33 1
    23    13    14 ar
    24    13    18 ar
    25    13    44 1
    26    14    15 ar
    27    14    34 1
    28    15    16 ar
    29    15    35 1
    30    16    17 ar
    31    17    18 ar
    32    17    36 1
    33    18    37 1
    34    44    19 1
    35    19    20 1
    36    19    21 1
    37    19    22 1
    38    20    38 1
    39    20    39 1
    40    20    40 1
    41    21    41 1
    42    21    42 1
    43    21    43 1
    44    22    23 1
    45    22    24 1
@<TRIPOS>SUBSTRUCTURE
     1 PEM         1 TEMP              0 ****  ****    0 ROOT
