@<TRIPOS>MOLECULE
molecule
    4     3     1     0     0
SMALL
bcc


@<TRIPOS>ATOM
      1 O1           0.0000     0.0000     0.0000 oh         1 PEO      -0.419000
      2 O2           1.4680     0.0000     0.0000 oh         1 PEO      -0.419000
      3 HO1         -0.3140     0.0000     0.8890 ho         1 PEO       0.419000
      4 HO2          1.7820     0.0000    -0.8890 ho         1 PEO       0.419000
@<TRIPOS>BOND
     1     1     2 1
     2     1     3 1
     3     2     4 1
@<TRIPOS>SUBSTRUCTURE
     1 PEO         1 TEMP              0 ****  ****    0 ROOT
