@<TRIPOS>MOLECULE
PEO
    4     3     1     0     0
SMALL
bcc


@<TRIPOS>ATOM
      1 O1          0.0820    0.0020   -0.0620 oh        1 PEO     -0.426000
      2 O2          1.3860   -0.0020    0.0620 oh        1 PEO     -0.426000
      3 HO1        -0.2510    0.0000    0.8610 ho        1 PEO      0.426000
      4 HO2         1.7190    0.0000   -0.8610 ho        1 PEO      0.426000
@<TRIPOS>BOND
     1    1    2 1   
     2    1    3 1   
     3    2    4 1   
@<TRIPOS>SUBSTRUCTURE
     1 PEO         1 TEMP              0 ****  ****    0 ROOT
