@<TRIPOS>MOLECULE
PEP
   12    11     1     0     0
SMALL
bcc


@<TRIPOS>ATOM
      1 C1         -0.1840   -0.1560    0.3860 c         1 PEP      0.891800
      2 O1          0.6230   -1.1330    0.5180 o         1 PEP     -0.908300
      3 O2'        -0.6440    0.4240    1.4240 o         1 PEP     -0.908300
      4 C2         -0.6760    0.2550   -1.0100 ce        1 PEP      0.260900
      5 C3         -1.7890   -0.3900   -1.4600 c2        1 PEP     -0.546000
      6 O2          0.0340    1.1870   -1.6100 os        1 PEP     -0.472500
      7 P           0.0110    2.0580   -3.1630 p5        1 PEP      1.353900
      8 O1P         1.1890    2.9740   -2.9690 o         1 PEP     -0.934167
      9 O2P         0.2070    0.9950   -4.2080 o         1 PEP     -0.934167
     10 O3P        -1.3230    2.7510   -3.2050 o         1 PEP     -0.934167
     11 H31        -2.2690   -1.1470   -0.8360 ha        1 PEP      0.065500
     12 H32        -2.2530   -0.2010   -2.4270 ha        1 PEP      0.065500
@<TRIPOS>BOND
     1    1    2 1   
     2    1    3 1   
     3    1    4 1   
     4    4    5 2   
     5    4    6 1   
     6    5   11 1   
     7    5   12 1   
     8    6    7 1   
     9    7    8 1   
    10    7    9 1   
    11    7   10 1   
@<TRIPOS>SUBSTRUCTURE
     1 PEP         1 TEMP              0 ****  ****    0 ROOT
