@<TRIPOS>MOLECULE
molecule
   12    11     1     0     0
SMALL
bcc


@<TRIPOS>ATOM
      1 C1           0.0000     0.0000     0.0000 c          1 PEP       0.897800
      2 O1           1.2150     0.0000     0.0000 o          1 PEP      -0.885800
      3 O2'         -0.6730     0.0000     1.1670 o          1 PEP      -0.885800
      4 C2          -0.7360    -0.0000    -1.2760 ce         1 PEP       0.106900
      5 C3          -2.0700     0.0010    -1.2760 c2         1 PEP      -0.348000
      6 O2          -0.0560    -0.0010    -2.4530 os         1 PEP      -0.468500
      7 P            0.0930     1.5360    -2.9050 p5         1 PEP       1.192900
      8 O1P          0.7360     2.3090    -1.8190 o          1 PEP      -0.926833
      9 O2P          1.0010     1.6210    -4.2320 o          1 PEP      -0.926833
     10 O3P         -1.3620     2.1500    -3.2110 o          1 PEP      -0.926833
     11 H31         -2.6110     0.0000    -2.2150 ha         1 PEP       0.085500
     12 H32         -2.6110     0.0010    -0.3380 ha         1 PEP       0.085500
@<TRIPOS>BOND
     1     1     2 1
     2     1     3 1
     3     1     4 1
     4     4     5 2
     5     4     6 1
     6     5    11 1
     7     5    12 1
     8     6     7 1
     9     7     8 1
    10     7     9 1
    11     7    10 1
@<TRIPOS>SUBSTRUCTURE
     1 PEP         1 TEMP              0 ****  ****    0 ROOT
