@<TRIPOS>MOLECULE
molecule
   14    13     1     0     0
SMALL
bcc


@<TRIPOS>ATOM
      1 C1           0.0000     0.0000     0.0000 c          1 PEQ       0.904600
      2 O1          -0.6040     0.9480    -0.4420 o          1 PEQ      -0.901800
      3 O2'         -0.6710    -1.0540     0.4910 o          1 PEQ      -0.901800
      4 C2           1.5070     0.0000     0.0000 c3         1 PEQ       0.081100
      5 C3           2.0170     0.0000     1.4430 c3         1 PEQ      -0.075100
      6 O2           1.9820     1.1670    -0.6730 os         1 PEQ      -0.540200
      7 P            2.8650     0.6570    -1.9210 p5         1 PEQ       1.200900
      8 O1P          3.9220    -0.2580    -1.4360 o          1 PEQ      -0.941500
      9 O2P          1.9180    -0.1210    -2.9650 o          1 PEQ      -0.941500
     10 O3P          3.5430     1.9220    -2.6500 o          1 PEQ      -0.941500
     11 H21          1.8680    -0.8840    -0.5110 h1         1 PEQ       0.069700
     12 H31          1.8420    -0.9720     1.8880 hc         1 PEQ      -0.004633
     13 H32          1.4930     0.7580     2.0120 hc         1 PEQ      -0.004633
     14 H33          3.0790     0.2140     1.4500 hc         1 PEQ      -0.004633
@<TRIPOS>BOND
     1     1     2 1
     2     1     3 1
     3     1     4 1
     4     4     5 1
     5     4     6 1
     6     4    11 1
     7     5    12 1
     8     5    13 1
     9     5    14 1
    10     6     7 1
    11     7     8 1
    12     7     9 1
    13     7    10 1
@<TRIPOS>SUBSTRUCTURE
     1 PEQ         1 TEMP              0 ****  ****    0 ROOT
