@<TRIPOS>MOLECULE
PER
    2     1     1     0     0
SMALL
bcc


@<TRIPOS>ATOM
      1 O1         -0.6450    0.0020   -0.0020 o         1 PER     -1.000000
      2 O2          0.6450   -0.0020    0.0020 o         1 PER     -1.000000
@<TRIPOS>BOND
     1    1    2 2   
@<TRIPOS>SUBSTRUCTURE
     1 PER         1 TEMP              0 ****  ****    0 ROOT
