@<TRIPOS>MOLECULE
molecule
   49    50     1     0     0
SMALL
bcc


@<TRIPOS>ATOM
      1 C1           0.0000     0.0000     0.0000 ca         1 PET       0.183100
      2 C2           1.3890     0.0000     0.0000 ca         1 PET      -0.184000
      3 C3           2.0790     0.0000     1.1920 ca         1 PET      -0.043000
      4 C4           1.3820    -0.0000     2.4010 ca         1 PET      -0.238400
      5 C5          -0.0140    -0.0050     2.3970 ca         1 PET      -0.043000
      6 C6          -0.6980    -0.0000     1.2010 ca         1 PET      -0.184000
      7 C7           2.1210    -0.0010     3.6830 ce         1 PET       0.547300
      8 CA          -2.0690     0.0000    -0.8520 c3         1 PET       0.108400
      9 CB          -2.8930     0.0000    -2.1410 c3         1 PET       0.125400
     10 C1'         -3.1400    -4.5710    -5.0420 ca         1 PET       0.183100
     11 C2'         -3.3550    -5.8690    -4.5950 ca         1 PET      -0.184000
     12 C3'         -3.0800    -6.9370    -5.4210 ca         1 PET      -0.043000
     13 C4'         -2.5850    -6.7140    -6.7060 ca         1 PET      -0.238400
     14 C5'         -2.3710    -5.4080    -7.1510 ca         1 PET      -0.043000
     15 C6'         -2.6530    -4.3450    -6.3220 ca         1 PET      -0.184000
     16 C7'         -2.2880    -7.8580    -7.5960 ce         1 PET       0.547300
     17 CA'         -3.0940    -2.3350    -4.9570 c3         1 PET       0.108400
     18 CB'         -3.3800    -1.1090    -4.0890 c3         1 PET       0.125400
     19 N1           3.4230    -0.0020     3.6840 n2         1 PET      -0.687100
     20 N2           1.4300    -0.0000     4.8750 nz         1 PET      -0.801600
     21 N1'         -2.4880    -9.0760    -7.1790 n2         1 PET      -0.687100
     22 N2'         -1.7990    -7.6360    -8.8650 nz         1 PET      -0.801600
     23 O1          -0.6770     0.0000    -1.1760 os         1 PET      -0.261400
     24 O1'         -3.4130    -3.5210    -4.2250 os         1 PET      -0.261400
     25 O2          -2.5830    -1.1670    -2.9050 os         1 PET      -0.397600
     26 H2           1.9300     0.0000    -0.9390 ha         1 PET       0.171000
     27 H3           3.1630     0.0020     1.1910 ha         1 PET       0.142000
     28 H5          -0.5590    -0.0050     3.3330 ha         1 PET       0.142000
     29 H6          -1.7810    -0.0020     1.1970 ha         1 PET       0.171000
     30 HA1         -2.3040     0.8850    -0.2730 h1         1 PET       0.058700
     31 HA2         -2.3050    -0.8840    -0.2730 h1         1 PET       0.058700
     32 HB1         -3.9480     0.0010    -1.8950 h1         1 PET       0.051950
     33 HB2         -2.6570     0.8840    -2.7210 h1         1 PET       0.051950
     34 H2'         -3.7380    -6.0410    -3.5970 ha         1 PET       0.171000
     35 H3'         -3.2470    -7.9490    -5.0730 ha         1 PET       0.142000
     36 H5'         -1.9890    -5.2310    -8.1490 ha         1 PET       0.142000
     37 H6'         -2.4870    -3.3320    -6.6670 ha         1 PET       0.171000
     38 HA'1        -3.6990    -2.2920    -5.8550 h1         1 PET       0.058700
     39 HA'2        -2.0460    -2.3490    -5.2290 h1         1 PET       0.058700
     40 HB'1        -4.4290    -1.0940    -3.8180 h1         1 PET       0.051950
     41 HB'2        -3.1380    -0.2100    -4.6430 h1         1 PET       0.051950
     42 HN1          3.9230    -0.0020     4.5510 hn         1 PET       0.434900
     43 HN21         2.0790     0.0020     5.6370 hn         1 PET       0.465133
     44 HN22         0.8530     0.8160     4.9260 hn         1 PET       0.465133
     45 HN1'        -2.2870    -9.8500    -7.7800 hn         1 PET       0.434900
     46 HN'1        -1.6540    -8.5120    -9.3250 hn         1 PET       0.465133
     47 HN'2        -2.4570    -7.0900    -9.3850 hn         1 PET       0.465133
     48 H23          0.8500    -0.8140     4.9250 hn         1 PET       0.465133
     49 H2'3        -0.9300    -7.1430    -8.8060 hn         1 PET       0.465133
@<TRIPOS>BOND
     1     1     2 ar
     2     1     6 ar
     3     1    23 1
     4     2     3 ar
     5     2    26 1
     6     3     4 ar
     7     3    27 1
     8     4     5 ar
     9     4     7 1
    10     5     6 ar
    11     5    28 1
    12     6    29 1
    13     7    19 2
    14     7    20 1
    15     8     9 1
    16     8    23 1
    17     8    30 1
    18     8    31 1
    19     9    25 1
    20     9    32 1
    21     9    33 1
    22    10    11 ar
    23    10    15 ar
    24    10    24 1
    25    11    12 ar
    26    11    34 1
    27    12    13 ar
    28    12    35 1
    29    13    14 ar
    30    13    16 1
    31    14    15 ar
    32    14    36 1
    33    15    37 1
    34    16    21 2
    35    16    22 1
    36    17    18 1
    37    17    24 1
    38    17    38 1
    39    17    39 1
    40    18    25 1
    41    18    40 1
    42    18    41 1
    43    19    42 1
    44    20    43 1
    45    20    44 1
    46    21    45 1
    47    22    46 1
    48    22    47 1
    49    48    20 1
    50    49    22 1
@<TRIPOS>SUBSTRUCTURE
     1 PET         1 TEMP              0 ****  ****    0 ROOT
