@<TRIPOS>MOLECULE
PET
   49    50     1     0     0
SMALL
bcc


@<TRIPOS>ATOM
      1 C1           0.0000     0.0000     0.0000 ca         1 PET       0.198100
      2 C2           1.3890     0.0000     0.0000 ca         1 PET      -0.158750
      3 C3           2.0790     0.0000     1.1920 ca         1 PET      -0.022500
      4 C4           1.3820    -0.0000     2.4010 ca         1 PET      -0.279400
      5 C5          -0.0140    -0.0050     2.3970 ca         1 PET      -0.022500
      6 C6          -0.6980    -0.0000     1.2010 ca         1 PET      -0.158750
      7 C7           2.1210    -0.0010     3.6830 ce         1 PET       0.218800
      8 CA          -2.0690     0.0000    -0.8520 c3         1 PET       0.167400
      9 CB          -2.8930     0.0000    -2.1410 c3         1 PET       0.196400
     10 C1'         -3.1400    -4.5710    -5.0420 ca         1 PET       0.198100
     11 C2'         -3.3550    -5.8690    -4.5950 ca         1 PET      -0.158750
     12 C3'         -3.0800    -6.9370    -5.4210 ca         1 PET      -0.022500
     13 C4'         -2.5850    -6.7140    -6.7060 ca         1 PET      -0.279400
     14 C5'         -2.3710    -5.4080    -7.1510 ca         1 PET      -0.022500
     15 C6'         -2.6530    -4.3450    -6.3220 ca         1 PET      -0.158750
     16 C7'         -2.2880    -7.8580    -7.5960 ce         1 PET       0.218800
     17 CA'         -3.0940    -2.3350    -4.9570 c3         1 PET       0.167400
     18 CB'         -3.3800    -1.1090    -4.0890 c3         1 PET       0.196400
     19 N1           3.4230    -0.0020     3.6840 n2         1 PET      -0.492100
     20 N2           1.4300    -0.0000     4.8750 nz         1 PET       0.190400
     21 N1'         -2.4880    -9.0760    -7.1790 n2         1 PET      -0.492100
     22 N2'         -1.7990    -7.6360    -8.8650 nz         1 PET       0.190400
     23 O1          -0.6770     0.0000    -1.1760 os         1 PET      -0.248900
     24 O1'         -3.4130    -3.5210    -4.2250 os         1 PET      -0.248900
     25 O2          -2.5830    -1.1670    -2.9050 os         1 PET      -0.392600
     26 H2           1.9300     0.0000    -0.9390 ha         1 PET       0.146500
     27 H3           3.1630     0.0020     1.1910 ha         1 PET       0.098500
     28 H5          -0.5590    -0.0050     3.3330 ha         1 PET       0.098500
     29 H6          -1.7810    -0.0020     1.1970 ha         1 PET       0.146500
     30 HA1         -2.3050    -0.8840    -0.2730 h1         1 PET       0.022450
     31 HA2         -2.3040     0.8850    -0.2730 h1         1 PET       0.022450
     32 HB1         -3.9480     0.0010    -1.8950 h1         1 PET       0.013700
     33 HB2         -2.6570     0.8840    -2.7210 h1         1 PET       0.013700
     34 H2'         -3.7380    -6.0410    -3.5970 ha         1 PET       0.146500
     35 H3'         -3.2470    -7.9490    -5.0730 ha         1 PET       0.098500
     36 H5'         -1.9890    -5.2310    -8.1490 ha         1 PET       0.098500
     37 H6'         -2.4870    -3.3320    -6.6670 ha         1 PET       0.146500
     38 HA'1        -3.6990    -2.2920    -5.8550 h1         1 PET       0.022450
     39 HA'2        -2.0460    -2.3490    -5.2290 h1         1 PET       0.022450
     40 HB'1        -4.4290    -1.0940    -3.8180 h1         1 PET       0.013700
     41 HB'2        -3.1380    -0.2100    -4.6430 h1         1 PET       0.013700
     42 HN1          3.9260    -0.0020     2.8190 hn         1 PET       0.380400
     43 HN21         0.8530     0.8160     4.9260 hn         1 PET       0.221800
     44 HN22         0.8560    -0.8180     4.9280 hn         1 PET       0.221800
     45 HN1'        -2.8430    -9.2390    -6.2580 hn         1 PET       0.380400
     46 HN'1        -1.6550    -8.5120    -9.3250 hn         1 PET       0.221800
     47 HN'2        -0.9300    -7.1430    -8.8060 hn         1 PET       0.221800
     48 H23          2.0790     0.0030     5.6360 hn         1 PET       0.221800
     49 H2'3        -2.4550    -7.0860    -9.3840 hn         1 PET       0.221800
@<TRIPOS>BOND
     1     1     2 ar  
     2     1     6 ar  
     3     1    23 1   
     4     2     3 ar  
     5     2    26 1   
     6     3     4 ar  
     7     3    27 1   
     8     4     5 ar  
     9     4     7 1   
    10     5     6 ar  
    11     5    28 1   
    12     6    29 1   
    13     7    19 2   
    14     7    20 1   
    15     8     9 1   
    16     8    23 1   
    17     8    30 1   
    18     8    31 1   
    19     9    25 1   
    20     9    32 1   
    21     9    33 1   
    22    10    11 ar  
    23    10    15 ar  
    24    10    24 1   
    25    11    12 ar  
    26    11    34 1   
    27    12    13 ar  
    28    12    35 1   
    29    13    14 ar  
    30    13    16 1   
    31    14    15 ar  
    32    14    36 1   
    33    15    37 1   
    34    16    21 2   
    35    16    22 1   
    36    17    18 1   
    37    17    24 1   
    38    17    38 1   
    39    17    39 1   
    40    18    25 1   
    41    18    40 1   
    42    18    41 1   
    43    19    42 1   
    44    20    43 1   
    45    20    44 1   
    46    20    48 1   
    47    21    45 1   
    48    22    46 1   
    49    22    47 1   
    50    22    49 1   
@<TRIPOS>SUBSTRUCTURE
     1 PET         1 TEMP              0 ****  ****    0 ROOT
