@<TRIPOS>MOLECULE
molecule
  195   194     1     0     0
SMALL
bcc


@<TRIPOS>ATOM
      1 CAA          0.0000     0.0000     0.0000 c3         1 PEU       0.114700
      2 OAB          1.4290     0.0000     0.0000 os         1 PEU      -0.399600
      3 CAC          1.8420     0.0000     1.3690 c3         1 PEU       0.125400
      4 CAD          3.3710     0.0010     1.4400 c3         1 PEU       0.125400
      5 OAE          3.8720     1.2220     0.8930 os         1 PEU      -0.387600
      6 CAF          5.2970     1.1620     0.9880 c3         1 PEU       0.126400
      7 CAG          5.9000     2.4470     0.4160 c3         1 PEU       0.126400
      8 OAH          5.5140     3.5570     1.2280 os         1 PEU      -0.388600
      9 CAI          6.1050     4.7200     0.6470 c3         1 PEU       0.126400
     10 CAJ          5.7280     5.9520     1.4730 c3         1 PEU       0.126400
     11 OAK          6.3050     5.8460     2.7760 os         1 PEU      -0.388600
     12 CAL          5.9200     7.0190     3.4950 c3         1 PEU       0.126400
     13 CAM          6.5080     6.9700     4.9070 c3         1 PEU       0.126400
     14 OAN          7.9340     7.0240     4.8310 os         1 PEU      -0.388600
     15 CAO          8.4210     6.9740     6.1720 c3         1 PEU       0.126400
     16 CAP          9.9500     7.0290     6.1620 c3         1 PEU       0.126400
     17 OAQ         10.3770     8.2950     5.6520 os         1 PEU      -0.388600
     18 CAR         11.8060     8.2840     5.6680 c3         1 PEU       0.126400
     19 CAS         12.3310     9.6170     5.1300 c3         1 PEU       0.126400
     20 OAT         11.9510    10.6710     6.0180 os         1 PEU      -0.388600
     21 CAU         12.4680    11.8830     5.4650 c3         1 PEU       0.126400
     22 CAV         12.0930    13.0570     6.3710 c3         1 PEU       0.126400
     23 OAW         12.7450    12.9110     7.6340 os         1 PEU      -0.388600
     24 CAX         12.3580    14.0320     8.4320 c3         1 PEU       0.126400
     25 CAY         13.0240    13.9350     9.8050 c3         1 PEU       0.126400
     26 OAZ         14.4410    14.0490     9.6560 os         1 PEU      -0.388600
     27 CBA         15.0030    13.9520    10.9660 c3         1 PEU       0.126400
     28 CBB         16.5260    14.0660    10.8770 c3         1 PEU       0.126400
     29 OBC         16.8800    15.3690    10.4100 os         1 PEU      -0.388600
     30 CCG         18.3060    15.4130    10.3490 c3         1 PEU       0.126400
     31 CCF         18.7530    16.7900     9.8520 c3         1 PEU       0.126400
     32 OCE         18.3850    17.7840    10.8100 os         1 PEU      -0.389600
     33 CCD         18.8280    19.0410    10.2920 c3         1 PEU       0.126400
     34 CCC         18.4620    20.1550    11.2760 c3         1 PEU       0.126400
     35 OCB         19.1870    19.9720    12.4940 os         1 PEU      -0.388600
     36 CCA         18.8050    21.0370    13.3660 c3         1 PEU       0.126400
     37 CBZ         19.5500    20.8990    14.6960 c3         1 PEU       0.126400
     38 OBY         20.9510    21.0730    14.4770 os         1 PEU      -0.388600
     39 CBX         21.5870    20.9350    15.7490 c3         1 PEU       0.126400
     40 CBW         23.0990    21.1120    15.5850 c3         1 PEU       0.126400
     41 OBV         23.3790    22.4480    15.1660 os         1 PEU      -0.388600
     42 CBU         24.7990    22.5500    15.0310 c3         1 PEU       0.126400
     43 CBT         25.1670    23.9650    14.5820 c3         1 PEU       0.126400
     44 OBS         24.8180    24.8970    15.6080 os         1 PEU      -0.388600
     45 CBR         25.1860    26.1930    15.1320 c3         1 PEU       0.126400
     46 CBQ         24.8350    27.2430    16.1880 c3         1 PEU       0.126400
     47 OBP         25.6330    27.0290    17.3550 os         1 PEU      -0.389600
     48 CBO         25.2620    28.0350    18.3000 c3         1 PEU       0.126400
     49 CBN         26.0830    27.8620    19.5780 c3         1 PEU       0.126400
     50 OBM         27.4630    28.0990    19.2940 os         1 PEU      -0.388600
     51 CBL         28.1730    27.9230    20.5220 c3         1 PEU       0.126400
     52 CBK         29.6660    28.1660    20.2870 c3         1 PEU       0.126400
     53 OBJ         29.8750    29.5320    19.9210 os         1 PEU      -0.388600
     54 CBI         31.2800    29.6930    19.7170 c3         1 PEU       0.126400
     55 CBH         31.5740    31.1410    19.3210 c3         1 PEU       0.126400
     56 OBG         31.2480    32.0080    20.4090 os         1 PEU      -0.388600
     57 CBF         31.5430    33.3390    19.9810 c3         1 PEU       0.126400
     58 CBE         31.2140    34.3220    21.1060 c3         1 PEU       0.126400
     59 OBD         32.0820    34.0820    22.2160 os         1 PEU      -0.388600
     60 CCH         31.7280    35.0260    23.2280 c3         1 PEU       0.126400
     61 CCI         32.6240    34.8230    24.4520 c3         1 PEU       0.126400
     62 OCJ         33.9770    35.1260    24.1070 os         1 PEU      -0.388600
     63 CCK         34.7600    34.9190    25.2850 c3         1 PEU       0.126400
     64 CCL         36.2270    35.2280    24.9820 c3         1 PEU       0.126400
     65 OCM         36.3670    36.6180    24.6770 os         1 PEU      -0.388600
     66 CCN         37.7520    36.8430    24.4050 c3         1 PEU       0.126400
     67 CCO         37.9720    38.3190    24.0680 c3         1 PEU       0.126400
     68 OCP         37.6760    39.1180    25.2160 os         1 PEU      -0.388600
     69 CCQ         37.9000    40.4790    24.8390 c3         1 PEU       0.126400
     70 CCR         37.6000    41.3930    26.0290 c3         1 PEU       0.126400
     71 OCS         38.5340    41.1320    27.0780 os         1 PEU      -0.388600
     72 CCT         38.2040    42.0120    28.1540 c3         1 PEU       0.126400
     73 CCU         39.1720    41.7830    29.3160 c3         1 PEU       0.126400
     74 OCV         40.4920    42.1560    28.9160 os         1 PEU      -0.389600
     75 CCW         41.3460    41.9200    30.0370 c3         1 PEU       0.126400
     76 CCX         42.7820    42.3000    29.6740 c3         1 PEU       0.126400
     77 OCY         42.8560    43.7070    29.4320 os         1 PEU      -0.389600
     78 CCZ         44.2150    43.9980    29.0990 c3         1 PEU       0.126400
     79 CDA         44.3630    45.4960    28.8260 c3         1 PEU       0.126400
     80 ODB         44.1030    46.2260    30.0260 os         1 PEU      -0.386600
     81 CDC         44.2570    47.6110    29.7080 c3         1 PEU       0.128400
     82 CDD         43.9900    48.4550    30.9570 c3         1 PEU       0.141400
     83 ODE         44.9910    48.1790    31.9400 oh         1 PEU      -0.600800
     84 HAA1        -0.3610     0.8850     0.5100 h1         1 PEU       0.029700
     85 HAA2        -0.3610    -0.0010    -1.0210 h1         1 PEU       0.029700
     86 HAA3        -0.3610    -0.8840     0.5110 h1         1 PEU       0.029700
     87 HAC1         1.4580    -0.8850     1.8620 h1         1 PEU       0.034700
     88 HAC2         1.4570     0.8840     1.8620 h1         1 PEU       0.034700
     89 HAD1         3.7600    -0.8360     0.8720 h1         1 PEU       0.033200
     90 HAD2         3.6840    -0.0870     2.4740 h1         1 PEU       0.033200
     91 HAF1         5.6600     0.3110     0.4250 h1         1 PEU       0.034200
     92 HAF2         5.5860     1.0590     2.0260 h1         1 PEU       0.034200
     93 HAG1         6.9800     2.3650     0.4060 h1         1 PEU       0.034200
     94 HAG2         5.5400     2.5960    -0.5940 h1         1 PEU       0.034200
     95 HAI1         5.7440     4.8400    -0.3670 h1         1 PEU       0.033700
     96 HAI2         7.1830     4.6100     0.6350 h1         1 PEU       0.033700
     97 HAJ1         4.6500     6.0120     1.5590 h1         1 PEU       0.034700
     98 HAJ2         6.1010     6.8430     0.9830 h1         1 PEU       0.034700
     99 HAL1         4.8390     7.0670     3.5550 h1         1 PEU       0.033700
    100 HAL2         6.2910     7.8970     2.9800 h1         1 PEU       0.033700
    101 HAM1         6.1440     7.8140     5.4790 h1         1 PEU       0.033700
    102 HAM2         6.2070     6.0490     5.3910 h1         1 PEU       0.033700
    103 HAO1         8.0320     7.8180     6.7290 h1         1 PEU       0.033700
    104 HAO2         8.0960     6.0520     6.6400 h1         1 PEU       0.033700
    105 HAP1        10.3230     6.9020     7.1710 h1         1 PEU       0.034200
    106 HAP2        10.3360     6.2370     5.5320 h1         1 PEU       0.034200
    107 HAR1        12.1560     8.1410     6.6830 h1         1 PEU       0.034200
    108 HAR2        12.1680     7.4750     5.0440 h1         1 PEU       0.034200
    109 HAS1        13.4120     9.5770     5.0590 h1         1 PEU       0.034200
    110 HAS2        11.9110     9.8010     4.1490 h1         1 PEU       0.034200
    111 HAU1        12.0470    12.0390     4.4790 h1         1 PEU       0.033700
    112 HAU2        13.5470    11.8140     5.3900 h1         1 PEU       0.033700
    113 HAV1        12.4060    13.9850     5.9080 h1         1 PEU       0.033700
    114 HAV2        11.0200    13.0710     6.5180 h1         1 PEU       0.033700
    115 HAX1        12.6690    14.9480     7.9430 h1         1 PEU       0.034200
    116 HAX2        11.2810    14.0350     8.5520 h1         1 PEU       0.034200
    117 HAY1        12.6620    14.7360    10.4400 h1         1 PEU       0.034200
    118 HAY2        12.7840    12.9800    10.2570 h1         1 PEU       0.034200
    119 HBA1        14.6170    14.7520    11.5860 h1         1 PEU       0.033700
    120 HBA2        14.7380    12.9970    11.4030 h1         1 PEU       0.033700
    121 HBB1        16.9580    13.9040    11.8570 h1         1 PEU       0.033700
    122 HBB2        16.9040    13.3210    10.1880 h1         1 PEU       0.033700
    123 HCG1        18.7160    15.2350    11.3360 h1         1 PEU       0.033700
    124 HCG2        18.6620    14.6500     9.6670 h1         1 PEU       0.033700
    125 HCF1        19.8280    16.7960     9.7210 h1         1 PEU       0.033700
    126 HCF2        18.2730    17.0060     8.9050 h1         1 PEU       0.033700
    127 HCD1        18.3480    19.2280     9.3390 h1         1 PEU       0.034200
    128 HCD2        19.9020    19.0170    10.1570 h1         1 PEU       0.034200
    129 HCC1        18.7160    21.1150    10.8450 h1         1 PEU       0.033700
    130 HCC2        17.3980    20.1210    11.4800 h1         1 PEU       0.033700
    131 HCA1        17.7370    20.9920    13.5440 h1         1 PEU       0.033700
    132 HCA2        19.0550    21.9860    12.9080 h1         1 PEU       0.033700
    133 HBZ1        19.3680    19.9150    15.1110 h1         1 PEU       0.033700
    134 HBZ2        19.1960    21.6540    15.3880 h1         1 PEU       0.033700
    135 HBX1        21.3800    19.9510    16.1510 h1         1 PEU       0.033700
    136 HBX2        21.2070    21.6890    16.4270 h1         1 PEU       0.033700
    137 HBW1        23.4650    20.4150    14.8410 h1         1 PEU       0.033700
    138 HBW2        23.5890    20.9200    16.5320 h1         1 PEU       0.033700
    139 HBU1        25.1440    21.8360    14.2940 h1         1 PEU       0.034700
    140 HBU2        25.2680    22.3400    15.9850 h1         1 PEU       0.034700
    141 HBT1        26.2330    24.0180    14.3940 h1         1 PEU       0.034200
    142 HBT2        24.6270    24.2080    13.6750 h1         1 PEU       0.034200
    143 HBR1        24.6470    26.4080    14.2170 h1         1 PEU       0.033700
    144 HBR2        26.2510    26.2180    14.9380 h1         1 PEU       0.033700
    145 HBQ1        23.7870    27.1590    16.4460 h1         1 PEU       0.034200
    146 HBQ2        25.0320    28.2320    15.7930 h1         1 PEU       0.034200
    147 HBO1        24.2080    27.9410    18.5320 h1         1 PEU       0.033700
    148 HBO2        25.4520    29.0140    17.8780 h1         1 PEU       0.033700
    149 HBN1        25.7410    28.5680    20.3250 h1         1 PEU       0.033700
    150 HBN2        25.9600    26.8520    19.9520 h1         1 PEU       0.033700
    151 HBL1        27.8040    28.6290    21.2570 h1         1 PEU       0.033700
    152 HBL2        28.0230    26.9130    20.8840 h1         1 PEU       0.033700
    153 HBK1        30.2150    27.9470    21.1950 h1         1 PEU       0.033700
    154 HBK2        30.0160    27.5210    19.4890 h1         1 PEU       0.033700
    155 HBI1        31.8080    29.4550    20.6330 h1         1 PEU       0.034200
    156 HBI2        31.6090    29.0290    18.9270 h1         1 PEU       0.034200
    157 HBH1        30.9770    31.4070    18.4560 h1         1 PEU       0.033700
    158 HBH2        32.6250    31.2440    19.0800 h1         1 PEU       0.033700
    159 HBF1        30.9470    33.5780    19.1080 h1         1 PEU       0.033700
    160 HBF2        32.5940    33.4140    19.7310 h1         1 PEU       0.033700
    161 HBE1        31.3530    35.3370    20.7520 h1         1 PEU       0.034200
    162 HBE2        30.1850    34.1860    21.4160 h1         1 PEU       0.034200
    163 HCH1        31.8600    36.0310    22.8470 h1         1 PEU       0.033700
    164 HCH2        30.6920    34.8810    23.5110 h1         1 PEU       0.033700
    165 HCI1        32.2990    35.4790    25.2510 h1         1 PEU       0.033700
    166 HCI2        32.5570    33.7930    24.7810 h1         1 PEU       0.033700
    167 HCK1        34.4070    35.5730    26.0730 h1         1 PEU       0.034200
    168 HCK2        34.6660    33.8870    25.6030 h1         1 PEU       0.034200
    169 HCL1        36.8330    34.9860    25.8470 h1         1 PEU       0.034200
    170 HCL2        36.5540    34.6370    24.1350 h1         1 PEU       0.034200
    171 HCN1        38.0600    36.2310    23.5660 h1         1 PEU       0.033700
    172 HCN2        38.3380    36.5810    25.2780 h1         1 PEU       0.033700
    173 HCO1        39.0040    38.4730    23.7770 h1         1 PEU       0.034200
    174 HCO2        37.3190    38.6040    23.2520 h1         1 PEU       0.034200
    175 HCQ1        37.2480    40.7360    24.0130 h1         1 PEU       0.034200
    176 HCQ2        38.9320    40.6050    24.5380 h1         1 PEU       0.034200
    177 HCR1        37.6840    42.4280    25.7190 h1         1 PEU       0.033700
    178 HCR2        36.5940    41.2030    26.3850 h1         1 PEU       0.033700
    179 HCT1        38.2800    43.0380    27.8180 h1         1 PEU       0.033700
    180 HCT2        37.1910    41.8140    28.4840 h1         1 PEU       0.033700
    181 HCU1        38.8680    42.3850    30.1630 h1         1 PEU       0.034200
    182 HCU2        39.1610    40.7360    29.5940 h1         1 PEU       0.034200
    183 HCW1        41.0140    42.5200    30.8760 h1         1 PEU       0.034200
    184 HCW2        41.3070    40.8710    30.3060 h1         1 PEU       0.034200
    185 HCX1        43.4430    42.0400    30.4920 h1         1 PEU       0.034200
    186 HCX2        43.0830    41.7640    28.7820 h1         1 PEU       0.034200
    187 HCZ1        44.8570    43.7160    29.9250 h1         1 PEU       0.034200
    188 HCZ2        44.4980    43.4400    28.2150 h1         1 PEU       0.034200
    189 HDA1        43.6570    45.7950    28.0610 h1         1 PEU       0.033700
    190 HDA2        45.3710    45.7030    28.4880 h1         1 PEU       0.033700
    191 HDC1        45.2660    47.7920    29.3590 h1         1 PEU       0.033200
    192 HDC2        43.5520    47.8830    28.9310 h1         1 PEU       0.033200
    193 HDD1        44.0200    49.5060    30.6970 h1         1 PEU       0.029200
    194 HDD2        43.0140    48.2090    31.3570 h1         1 PEU       0.029200
    195 HDE         44.8810    48.7620    32.6720 ho         1 PEU       0.399000
@<TRIPOS>BOND
     1     1     2 1
     2     1    84 1
     3     1    85 1
     4     1    86 1
     5     2     3 1
     6     3     4 1
     7     3    87 1
     8     3    88 1
     9     4     5 1
    10     4    89 1
    11     4    90 1
    12     5     6 1
    13     6     7 1
    14     6    91 1
    15     6    92 1
    16     7     8 1
    17     7    93 1
    18     7    94 1
    19     8     9 1
    20     9    10 1
    21     9    95 1
    22     9    96 1
    23    10    11 1
    24    10    97 1
    25    10    98 1
    26    11    12 1
    27    12    13 1
    28    12    99 1
    29    12   100 1
    30    13    14 1
    31    13   101 1
    32    13   102 1
    33    14    15 1
    34    15    16 1
    35    15   103 1
    36    15   104 1
    37    16    17 1
    38    16   105 1
    39    16   106 1
    40    17    18 1
    41    18    19 1
    42    18   107 1
    43    18   108 1
    44    19    20 1
    45    19   109 1
    46    19   110 1
    47    20    21 1
    48    21    22 1
    49    21   111 1
    50    21   112 1
    51    22    23 1
    52    22   113 1
    53    22   114 1
    54    23    24 1
    55    24    25 1
    56    24   115 1
    57    24   116 1
    58    25    26 1
    59    25   117 1
    60    25   118 1
    61    26    27 1
    62    27    28 1
    63    27   119 1
    64    27   120 1
    65    28    29 1
    66    28   121 1
    67    28   122 1
    68    29    30 1
    69    30    31 1
    70    30   123 1
    71    30   124 1
    72    31    32 1
    73    31   125 1
    74    31   126 1
    75    32    33 1
    76    33    34 1
    77    33   127 1
    78    33   128 1
    79    34    35 1
    80    34   129 1
    81    34   130 1
    82    35    36 1
    83    36    37 1
    84    36   131 1
    85    36   132 1
    86    37    38 1
    87    37   133 1
    88    37   134 1
    89    38    39 1
    90    39    40 1
    91    39   135 1
    92    39   136 1
    93    40    41 1
    94    40   137 1
    95    40   138 1
    96    41    42 1
    97    42    43 1
    98    42   139 1
    99    42   140 1
   100    43    44 1
   101    43   141 1
   102    43   142 1
   103    44    45 1
   104    45    46 1
   105    45   143 1
   106    45   144 1
   107    46    47 1
   108    46   145 1
   109    46   146 1
   110    47    48 1
   111    48    49 1
   112    48   147 1
   113    48   148 1
   114    49    50 1
   115    49   149 1
   116    49   150 1
   117    50    51 1
   118    51    52 1
   119    51   151 1
   120    51   152 1
   121    52    53 1
   122    52   153 1
   123    52   154 1
   124    53    54 1
   125    54    55 1
   126    54   155 1
   127    54   156 1
   128    55    56 1
   129    55   157 1
   130    55   158 1
   131    56    57 1
   132    57    58 1
   133    57   159 1
   134    57   160 1
   135    58    59 1
   136    58   161 1
   137    58   162 1
   138    59    60 1
   139    60    61 1
   140    60   163 1
   141    60   164 1
   142    61    62 1
   143    61   165 1
   144    61   166 1
   145    62    63 1
   146    63    64 1
   147    63   167 1
   148    63   168 1
   149    64    65 1
   150    64   169 1
   151    64   170 1
   152    65    66 1
   153    66    67 1
   154    66   171 1
   155    66   172 1
   156    67    68 1
   157    67   173 1
   158    67   174 1
   159    68    69 1
   160    69    70 1
   161    69   175 1
   162    69   176 1
   163    70    71 1
   164    70   177 1
   165    70   178 1
   166    71    72 1
   167    72    73 1
   168    72   179 1
   169    72   180 1
   170    73    74 1
   171    73   181 1
   172    73   182 1
   173    74    75 1
   174    75    76 1
   175    75   183 1
   176    75   184 1
   177    76    77 1
   178    76   185 1
   179    76   186 1
   180    77    78 1
   181    78    79 1
   182    78   187 1
   183    78   188 1
   184    79    80 1
   185    79   189 1
   186    79   190 1
   187    80    81 1
   188    81    82 1
   189    81   191 1
   190    81   192 1
   191    82    83 1
   192    82   193 1
   193    82   194 1
   194    83   195 1
@<TRIPOS>SUBSTRUCTURE
     1 PEU         1 TEMP              0 ****  ****    0 ROOT
