@<TRIPOS>MOLECULE
PEU
  195   194     1     0     0
SMALL
bcc


@<TRIPOS>ATOM
      1 CAA        -2.2800   -5.7890   -4.7210 c3        1 PEU      0.118700
      2 OAB        -2.2460   -4.4180   -4.3620 os        1 PEU     -0.425600
      3 CAC        -1.5290   -4.1940   -3.1500 c3        1 PEU      0.125400
      4 CAD        -1.5740   -2.6880   -2.9120 c3        1 PEU      0.128400
      5 OAE        -0.9450   -2.4750   -1.6510 os        1 PEU     -0.430600
      6 CAF        -0.9230   -1.0940   -1.2910 c3        1 PEU      0.128400
      7 CAG        -0.1020   -0.9970   -0.0090 c3        1 PEU      0.127400
      8 OAH         1.1270   -0.3670   -0.3620 os        1 PEU     -0.428600
      9 CAI         2.0600   -0.3610    0.7160 c3        1 PEU      0.127400
     10 CAJ         3.2400    0.4920    0.2630 c3        1 PEU      0.127400
     11 OAK         3.1590    1.7160    0.9910 os        1 PEU     -0.429600
     12 CAL         4.1170    2.6740    0.5450 c3        1 PEU      0.127400
     13 CAM         4.0370    3.8490    1.5130 c3        1 PEU      0.127400
     14 OAN         5.2140    3.7960    2.3160 os        1 PEU     -0.429600
     15 CAO         5.1880    4.7480    3.3770 c3        1 PEU      0.127400
     16 CAP         6.5640    4.7050    4.0320 c3        1 PEU      0.127400
     17 OAQ         7.2290    5.9100    3.6580 os        1 PEU     -0.429600
     18 CAR         8.5910    5.9280    4.0800 c3        1 PEU      0.127400
     19 CAS         9.1200    7.3270    3.7790 c3        1 PEU      0.127400
     20 OAT         9.2380    7.9940    5.0330 os        1 PEU     -0.429600
     21 CAU         9.5700    9.3730    4.8820 c3        1 PEU      0.127400
     22 CAV         9.8290    9.9120    6.2850 c3        1 PEU      0.127400
     23 OAW        11.2380   10.1110    6.3890 os        1 PEU     -0.429600
     24 CAX        11.6360   10.4650    7.7120 c3        1 PEU      0.127400
     25 CAY        13.1180   10.8190    7.6380 c3        1 PEU      0.127400
     26 OAZ        13.2040   12.2350    7.7830 os        1 PEU     -0.429600
     27 CBA        14.5290   12.7190    7.5780 c3        1 PEU      0.127400
     28 CBB        14.5090   14.2010    7.9350 c3        1 PEU      0.127400
     29 OBC        15.1870   14.3260    9.1840 os        1 PEU     -0.429600
     30 CCG        15.0980   15.6460    9.7160 c3        1 PEU      0.127400
     31 CCF        15.9980   15.6780   10.9470 c3        1 PEU      0.127400
     32 OCE        17.1410   16.4530   10.5940 os        1 PEU     -0.429600
     33 CCD        18.1430   16.4320   11.6080 c3        1 PEU      0.127400
     34 CCC        19.2110   17.4340   11.1840 c3        1 PEU      0.127400
     35 OCB        19.0750   18.5610   12.0470 os        1 PEU     -0.429600
     36 CCA        19.9120   19.6470   11.6550 c3        1 PEU      0.127400
     37 CBZ        19.7970   20.7010   12.7510 c3        1 PEU      0.127400
     38 OBY        21.0290   20.6750   13.4680 os        1 PEU     -0.429600
     39 CBX        20.9960   21.5040   14.6280 c3        1 PEU      0.127400
     40 CBW        22.4140   21.5200   15.1900 c3        1 PEU      0.127400
     41 OBV        22.9460   22.8140   14.9090 os        1 PEU     -0.429600
     42 CBU        24.3290   22.9120   15.2410 c3        1 PEU      0.127400
     43 CBT        24.7150   24.3770   15.0640 c3        1 PEU      0.127400
     44 OBS        24.8830   24.9130   16.3750 os        1 PEU     -0.429600
     45 CBR        25.0900   26.3230   16.3580 c3        1 PEU      0.127400
     46 CBQ        25.4270   26.7280   17.7900 c3        1 PEU      0.127400
     47 OBP        26.8200   27.0370   17.8060 os        1 PEU     -0.429600
     48 CBO        27.3040   27.2770   19.1260 c3        1 PEU      0.127400
     49 CBN        28.7400   27.7670   18.9780 c3        1 PEU      0.127400
     50 OBM        28.7250   29.1620   19.2730 os        1 PEU     -0.429600
     51 CBL        29.9830   29.7820   19.0160 c3        1 PEU      0.127400
     52 CBK        29.8750   31.2120   19.5340 c3        1 PEU      0.127400
     53 OBJ        30.6650   31.2740   20.7210 os        1 PEU     -0.429600
     54 CBI        30.5220   32.5200   21.3990 c3        1 PEU      0.127400
     55 CBH        31.5450   32.5160   22.5310 c3        1 PEU      0.127400
     56 OBG        32.5790   33.4190   22.1450 os        1 PEU     -0.429600
     57 CBF        33.6830   33.3930   23.0480 c3        1 PEU      0.127400
     58 CBE        34.6210   34.5160   22.6190 c3        1 PEU      0.127400
     59 OBD        34.4910   35.5480   23.5940 os        1 PEU     -0.429600
     60 CCH        35.1960   36.7310   23.2250 c3        1 PEU      0.127400
     61 CCI        35.1160   37.6750   24.4200 c3        1 PEU      0.127400
     62 OCJ        36.4160   37.6980   25.0060 os        1 PEU     -0.429600
     63 CCK        36.4420   38.4240   26.2330 c3        1 PEU      0.127400
     64 CCL        37.9060   38.5190   26.6500 c3        1 PEU      0.127400
     65 OCM        38.3040   39.8700   26.4250 os        1 PEU     -0.429600
     66 CCN        39.7030   40.0610   26.6230 c3        1 PEU      0.127400
     67 CCO        39.9540   41.5620   26.5220 c3        1 PEU      0.127400
     68 OCP        40.2170   42.0200   27.8470 os        1 PEU     -0.429600
     69 CCQ        40.3080   43.4410   27.9180 c3        1 PEU      0.127400
     70 CCR        40.7610   43.7750   29.3360 c3        1 PEU      0.127400
     71 OCS        42.1170   44.2050   29.2360 os        1 PEU     -0.429600
     72 CCT        42.7180   44.3980   30.5150 c3        1 PEU      0.127400
     73 CCU        44.0880   45.0190   30.2620 c3        1 PEU      0.127400
     74 OCV        43.9930   46.3860   30.6570 os        1 PEU     -0.429600
     75 CCW        45.1620   47.1280   30.3170 c3        1 PEU      0.127400
     76 CCX        44.9960   48.5080   30.9450 c3        1 PEU      0.127400
     77 OCY        45.8860   48.5560   32.0600 os        1 PEU     -0.428600
     78 CCZ        45.7090   49.7340   32.8420 c3        1 PEU      0.127400
     79 CDA        46.8220   49.7330   33.8840 c3        1 PEU      0.128400
     80 ODB        47.7490   50.7430   33.4900 os        1 PEU     -0.438600
     81 CDC        48.9330   50.7330   34.2850 c3        1 PEU      0.087400
     82 CDD        49.7860   51.8950   33.7870 c3        1 PEU      0.131400
     83 ODE        49.1790   53.1410   34.0580 oh        1 PEU     -0.600800
     84 HAA1       -2.8650   -5.8120   -5.6750 h1        1 PEU      0.033700
     85 HAA2       -2.7930   -6.3910   -3.9310 h1        1 PEU      0.033700
     86 HAA3       -1.2460   -6.1800   -4.8860 h1        1 PEU      0.033700
     87 HAC1       -2.0200   -4.7440   -2.3050 h1        1 PEU      0.039700
     88 HAC2       -0.4700   -4.5480   -3.2570 h1        1 PEU      0.039700
     89 HAD1       -1.0190   -2.1410   -3.7190 h1        1 PEU      0.040700
     90 HAD2       -2.6350   -2.3240   -2.8810 h1        1 PEU      0.040700
     91 HAF1       -0.4560   -0.4860   -2.1110 h1        1 PEU      0.044700
     92 HAF2       -1.9730   -0.7440   -1.1130 h1        1 PEU      0.044700
     93 HAG1       -0.6350   -0.3650    0.7500 h1        1 PEU      0.043700
     94 HAG2        0.0920   -2.0170    0.4180 h1        1 PEU      0.043700
     95 HAI1        1.5860    0.0720    1.6370 h1        1 PEU      0.043700
     96 HAI2        2.3930   -1.4120    0.9210 h1        1 PEU      0.043700
     97 HAJ1        4.2090   -0.0190    0.5070 h1        1 PEU      0.043700
     98 HAJ2        3.1870    0.6920   -0.8400 h1        1 PEU      0.043700
     99 HAL1        3.8530    3.0030   -0.4940 h1        1 PEU      0.043700
    100 HAL2        5.1460    2.2250    0.5490 h1        1 PEU      0.043700
    101 HAM1        3.1220    3.7720    2.1590 h1        1 PEU      0.043200
    102 HAM2        4.0200    4.8190    0.9500 h1        1 PEU      0.043200
    103 HAO1        4.9710    5.7730    2.9740 h1        1 PEU      0.043700
    104 HAO2        4.3940    4.4560    4.1140 h1        1 PEU      0.043700
    105 HAP1        7.1470    3.8130    3.6780 h1        1 PEU      0.043700
    106 HAP2        6.4650    4.6710    5.1490 h1        1 PEU      0.043700
    107 HAR1        8.6610    5.7040    5.1770 h1        1 PEU      0.043700
    108 HAR2        9.1670    5.1590    3.5000 h1        1 PEU      0.043700
    109 HAS1       10.1310    7.2670    3.2970 h1        1 PEU      0.043700
    110 HAS2        8.4140    7.8830    3.1070 h1        1 PEU      0.043700
    111 HAU1        8.7070    9.9100    4.4090 h1        1 PEU      0.043700
    112 HAU2       10.4830    9.4830    4.2380 h1        1 PEU      0.043700
    113 HAV1        9.3070   10.8950    6.4290 h1        1 PEU      0.043700
    114 HAV2        9.4810    9.1820    7.0630 h1        1 PEU      0.043700
    115 HAX1       11.4770    9.5860    8.3910 h1        1 PEU      0.043700
    116 HAX2       11.0350   11.3390    8.0780 h1        1 PEU      0.043700
    117 HAY1       13.6790   10.3280    8.4770 h1        1 PEU      0.043700
    118 HAY2       13.5550   10.5020    6.6540 h1        1 PEU      0.043700
    119 HBA1       14.8090   12.5800    6.5000 h1        1 PEU      0.043700
    120 HBA2       15.2520   12.1610    8.2310 h1        1 PEU      0.043700
    121 HBB1       15.0560   14.7990    7.1590 h1        1 PEU      0.043700
    122 HBB2       13.4550   14.5750    8.0260 h1        1 PEU      0.043700
    123 HCG1       14.0340   15.8570   10.0040 h1        1 PEU      0.043700
    124 HCG2       15.4380   16.3960    8.9540 h1        1 PEU      0.043700
    125 HCF1       15.4700   16.1720   11.8060 h1        1 PEU      0.043700
    126 HCF2       16.3080   14.6400   11.2420 h1        1 PEU      0.043700
    127 HCD1       17.7000   16.7170   12.5990 h1        1 PEU      0.043700
    128 HCD2       18.5780   15.4000   11.6730 h1        1 PEU      0.043700
    129 HCC1       20.2350   16.9940   11.3140 h1        1 PEU      0.043700
    130 HCC2       19.0660   17.7430   10.1150 h1        1 PEU      0.043700
    131 HCA1       19.5470   20.0580   10.6760 h1        1 PEU      0.043700
    132 HCA2       20.9730   19.2990   11.5460 h1        1 PEU      0.043700
    133 HBZ1       19.6550   21.7190   12.3010 h1        1 PEU      0.043700
    134 HBZ2       18.9420   20.4690   13.4390 h1        1 PEU      0.043700
    135 HBX1       20.2840   21.0630   15.3750 h1        1 PEU      0.043700
    136 HBX2       20.6630   22.5410   14.3550 h1        1 PEU      0.043700
    137 HBW1       22.3970   21.3630   16.3000 h1        1 PEU      0.043700
    138 HBW2       23.0440   20.7280   14.7060 h1        1 PEU      0.043700
    139 HBU1       24.9220   22.2640   14.5420 h1        1 PEU      0.043700
    140 HBU2       24.5000   22.5800   16.2990 h1        1 PEU      0.043700
    141 HBT1       25.6830   24.4620   14.5040 h1        1 PEU      0.043700
    142 HBT2       23.9110   24.9360   14.5150 h1        1 PEU      0.043700
    143 HBR1       25.9300   26.5850   15.6620 h1        1 PEU      0.043700
    144 HBR2       24.1480   26.8300   16.0200 h1        1 PEU      0.043700
    145 HBQ1       25.2060   25.8910   18.5030 h1        1 PEU      0.043700
    146 HBQ2       24.8450   27.6400   18.0860 h1        1 PEU      0.043700
    147 HBO1       27.2750   26.3180   19.7080 h1        1 PEU      0.043700
    148 HBO2       26.6700   28.0490   19.6380 h1        1 PEU      0.043700
    149 HBN1       29.4100   27.2430   19.7100 h1        1 PEU      0.043700
    150 HBN2       29.1150   27.5940   17.9340 h1        1 PEU      0.043700
    151 HBL1       30.1750   29.7800   17.9100 h1        1 PEU      0.043700
    152 HBL2       30.8050   29.2280   19.5430 h1        1 PEU      0.043700
    153 HBK1       30.2870   31.9340   18.7800 h1        1 PEU      0.043700
    154 HBK2       28.8080   31.4740   19.7640 h1        1 PEU      0.043700
    155 HBI1       29.4820   32.5970   21.8120 h1        1 PEU      0.043700
    156 HBI2       30.7130   33.3710   20.6930 h1        1 PEU      0.043700
    157 HBH1       31.9650   31.4870   22.6850 h1        1 PEU      0.043700
    158 HBH2       31.0760   32.8790   23.4830 h1        1 PEU      0.043700
    159 HBF1       34.1990   32.4000   22.9700 h1        1 PEU      0.043200
    160 HBF2       33.3270   33.5520   24.1010 h1        1 PEU      0.043200
    161 HBE1       35.6830   34.1550   22.6040 h1        1 PEU      0.043700
    162 HBE2       34.3400   34.9030   21.6030 h1        1 PEU      0.043700
    163 HCH1       36.2640   36.4870   22.9810 h1        1 PEU      0.043700
    164 HCH2       34.7010   37.1910   22.3290 h1        1 PEU      0.043700
    165 HCI1       34.8450   38.7100   24.0840 h1        1 PEU      0.043700
    166 HCI2       34.3600   37.3100   25.1660 h1        1 PEU      0.043700
    167 HCK1       36.0010   39.4460   26.0900 h1        1 PEU      0.043700
    168 HCK2       35.8510   37.8630   27.0050 h1        1 PEU      0.043700
    169 HCL1       38.0190   38.2790   27.7400 h1        1 PEU      0.043700
    170 HCL2       38.5390   37.8210   26.0410 h1        1 PEU      0.043700
    171 HCN1       40.0090   39.6730   27.6310 h1        1 PEU      0.043200
    172 HCN2       40.2670   39.5140   25.8220 h1        1 PEU      0.043200
    173 HCO1       39.0580   42.0880   26.0990 h1        1 PEU      0.043700
    174 HCO2       40.8500   41.7660   25.8780 h1        1 PEU      0.043700
    175 HCQ1       39.2980   43.8850   27.7160 h1        1 PEU      0.043700
    176 HCQ2       41.0460   43.8220   27.1630 h1        1 PEU      0.043700
    177 HCR1       40.1410   44.6080   29.7590 h1        1 PEU      0.043700
    178 HCR2       40.6870   42.8740   30.0010 h1        1 PEU      0.043700
    179 HCT1       42.0830   45.0770   31.1440 h1        1 PEU      0.043200
    180 HCT2       42.8270   43.4040   31.0250 h1        1 PEU      0.043200
    181 HCU1       44.3630   44.9460   29.1760 h1        1 PEU      0.043700
    182 HCU2       44.8700   44.5090   30.8840 h1        1 PEU      0.043700
    183 HCW1       45.2330   47.2130   29.2010 h1        1 PEU      0.043700
    184 HCW2       46.0770   46.6160   30.7160 h1        1 PEU      0.043700
    185 HCX1       45.2820   49.3080   30.2130 h1        1 PEU      0.044200
    186 HCX2       43.9380   48.6670   31.2850 h1        1 PEU      0.044200
    187 HCZ1       45.7730   50.6460   32.1900 h1        1 PEU      0.043200
    188 HCZ2       44.7050   49.6980   33.3420 h1        1 PEU      0.043200
    189 HDA1       46.4120   49.9870   34.8970 h1        1 PEU      0.045200
    190 HDA2       47.3300   48.7330   33.9220 h1        1 PEU      0.045200
    191 HDC1       49.4740   49.7610   34.1510 h1        1 PEU      0.039200
    192 HDC2       48.6630   50.8710   35.3650 h1        1 PEU      0.039200
    193 HDD1       50.7600   51.9170   34.3450 h1        1 PEU      0.053700
    194 HDD2       49.9760   51.7880   32.6860 h1        1 PEU      0.053700
    195 HDE        48.3070   53.1240   33.6420 ho        1 PEU      0.412000
@<TRIPOS>BOND
     1    1    2 1   
     2    1   84 1   
     3    1   85 1   
     4    1   86 1   
     5    2    3 1   
     6    3    4 1   
     7    3   87 1   
     8    3   88 1   
     9    4    5 1   
    10    4   89 1   
    11    4   90 1   
    12    5    6 1   
    13    6    7 1   
    14    6   91 1   
    15    6   92 1   
    16    7    8 1   
    17    7   93 1   
    18    7   94 1   
    19    8    9 1   
    20    9   10 1   
    21    9   95 1   
    22    9   96 1   
    23   10   11 1   
    24   10   97 1   
    25   10   98 1   
    26   11   12 1   
    27   12   13 1   
    28   12   99 1   
    29   12  100 1   
    30   13   14 1   
    31   13  101 1   
    32   13  102 1   
    33   14   15 1   
    34   15   16 1   
    35   15  103 1   
    36   15  104 1   
    37   16   17 1   
    38   16  105 1   
    39   16  106 1   
    40   17   18 1   
    41   18   19 1   
    42   18  107 1   
    43   18  108 1   
    44   19   20 1   
    45   19  109 1   
    46   19  110 1   
    47   20   21 1   
    48   21   22 1   
    49   21  111 1   
    50   21  112 1   
    51   22   23 1   
    52   22  113 1   
    53   22  114 1   
    54   23   24 1   
    55   24   25 1   
    56   24  115 1   
    57   24  116 1   
    58   25   26 1   
    59   25  117 1   
    60   25  118 1   
    61   26   27 1   
    62   27   28 1   
    63   27  119 1   
    64   27  120 1   
    65   28   29 1   
    66   28  121 1   
    67   28  122 1   
    68   29   30 1   
    69   30   31 1   
    70   30  123 1   
    71   30  124 1   
    72   31   32 1   
    73   31  125 1   
    74   31  126 1   
    75   32   33 1   
    76   33   34 1   
    77   33  127 1   
    78   33  128 1   
    79   34   35 1   
    80   34  129 1   
    81   34  130 1   
    82   35   36 1   
    83   36   37 1   
    84   36  131 1   
    85   36  132 1   
    86   37   38 1   
    87   37  133 1   
    88   37  134 1   
    89   38   39 1   
    90   39   40 1   
    91   39  135 1   
    92   39  136 1   
    93   40   41 1   
    94   40  137 1   
    95   40  138 1   
    96   41   42 1   
    97   42   43 1   
    98   42  139 1   
    99   42  140 1   
   100   43   44 1   
   101   43  141 1   
   102   43  142 1   
   103   44   45 1   
   104   45   46 1   
   105   45  143 1   
   106   45  144 1   
   107   46   47 1   
   108   46  145 1   
   109   46  146 1   
   110   47   48 1   
   111   48   49 1   
   112   48  147 1   
   113   48  148 1   
   114   49   50 1   
   115   49  149 1   
   116   49  150 1   
   117   50   51 1   
   118   51   52 1   
   119   51  151 1   
   120   51  152 1   
   121   52   53 1   
   122   52  153 1   
   123   52  154 1   
   124   53   54 1   
   125   54   55 1   
   126   54  155 1   
   127   54  156 1   
   128   55   56 1   
   129   55  157 1   
   130   55  158 1   
   131   56   57 1   
   132   57   58 1   
   133   57  159 1   
   134   57  160 1   
   135   58   59 1   
   136   58  161 1   
   137   58  162 1   
   138   59   60 1   
   139   60   61 1   
   140   60  163 1   
   141   60  164 1   
   142   61   62 1   
   143   61  165 1   
   144   61  166 1   
   145   62   63 1   
   146   63   64 1   
   147   63  167 1   
   148   63  168 1   
   149   64   65 1   
   150   64  169 1   
   151   64  170 1   
   152   65   66 1   
   153   66   67 1   
   154   66  171 1   
   155   66  172 1   
   156   67   68 1   
   157   67  173 1   
   158   67  174 1   
   159   68   69 1   
   160   69   70 1   
   161   69  175 1   
   162   69  176 1   
   163   70   71 1   
   164   70  177 1   
   165   70  178 1   
   166   71   72 1   
   167   72   73 1   
   168   72  179 1   
   169   72  180 1   
   170   73   74 1   
   171   73  181 1   
   172   73  182 1   
   173   74   75 1   
   174   75   76 1   
   175   75  183 1   
   176   75  184 1   
   177   76   77 1   
   178   76  185 1   
   179   76  186 1   
   180   77   78 1   
   181   78   79 1   
   182   78  187 1   
   183   78  188 1   
   184   79   80 1   
   185   79  189 1   
   186   79  190 1   
   187   80   81 1   
   188   81   82 1   
   189   81  191 1   
   190   81  192 1   
   191   82   83 1   
   192   82  193 1   
   193   82  194 1   
   194   83  195 1   
@<TRIPOS>SUBSTRUCTURE
     1 PEU         1 TEMP              0 ****  ****    0 ROOT
