@<TRIPOS>MOLECULE
PEV
  126   125     1     0     0
SMALL
bcc


@<TRIPOS>ATOM
      1 C48         0.2320    0.1510   -0.7940 c3        1 PEV     -0.092100
      2 C47         1.7340    0.1990   -0.6750 c3        1 PEV     -0.080400
      3 C46         2.1800    0.0860    0.7670 c3        1 PEV     -0.079400
      4 C45         3.6890    0.1340    0.8830 c3        1 PEV     -0.079400
      5 C44         4.1340    0.0210    2.3250 c3        1 PEV     -0.079400
      6 C43         5.6420    0.0690    2.4400 c3        1 PEV     -0.079400
      7 C42         6.0870   -0.0430    3.8830 c3        1 PEV     -0.079400
      8 C41         7.5960    0.0050    3.9980 c3        1 PEV     -0.079400
      9 C40         8.0410   -0.1070    5.4400 c3        1 PEV     -0.079400
     10 C39         9.5490   -0.0600    5.5560 c3        1 PEV     -0.079400
     11 C38         9.9950   -0.1720    6.9980 c3        1 PEV     -0.078400
     12 C37        11.5030   -0.1240    7.1130 c3        1 PEV     -0.079400
     13 C36        11.9480   -0.2360    8.5550 c3        1 PEV     -0.079400
     14 C35        13.4570   -0.1890    8.6700 c3        1 PEV     -0.079400
     15 C34        13.9020   -0.3010   10.1120 c3        1 PEV     -0.078400
     16 C33        15.4100   -0.2480   10.2230 c3        1 PEV     -0.078400
     17 C32        15.8500   -0.3800   11.6650 c3        1 PEV     -0.130400
     18 C31        17.3330   -0.1890   11.7960 c         1 PEV      0.634100
     19 O31        18.0580    0.5830   11.1620 o         1 PEV     -0.563000
     20 O2         17.8680   -0.9860   12.7580 os        1 PEV     -0.425900
     21 C2         19.2870   -0.8970   13.0080 c3        1 PEV      0.136100
     22 C1         19.6520   -2.2380   13.6610 c3        1 PEV      0.185400
     23 O3P        21.0390   -2.2770   13.8190 os        1 PEV     -0.559200
     24 P          21.5400   -3.5410   14.7510 p5        1 PEV      1.427800
     25 O1P        20.5840   -4.6510   14.5530 o         1 PEV     -0.826500
     26 O2P        23.0060   -3.6220   14.7030 o         1 PEV     -0.826500
     27 O4P        21.0710   -2.9100   16.2220 os        1 PEV     -0.589200
     28 C4         21.1540   -3.8010   17.2900 c3        1 PEV      0.159400
     29 C5         19.7600   -4.1690   17.8340 c3        1 PEV      0.131800
     30 N6         18.8520   -4.8370   16.9350 n3        1 PEV     -0.905800
     31 C3         19.5990    0.3060   13.8930 c3        1 PEV      0.126400
     32 O3         19.0830    0.0390   15.2030 os        1 PEV     -0.441900
     33 C11        19.8210    0.4870   16.2680 c         1 PEV      0.654100
     34 O11        20.6010    1.4250   16.0870 o         1 PEV     -0.561000
     35 C12        19.5290   -0.2820   17.5150 c3        1 PEV     -0.150400
     36 C13        19.9830    0.4540   18.7540 c3        1 PEV     -0.072400
     37 C14        19.8350   -0.4240   19.9780 c3        1 PEV     -0.080400
     38 C15        20.3170    0.2870   21.2240 c3        1 PEV     -0.077400
     39 C16        20.1680   -0.5900   22.4480 c3        1 PEV     -0.079400
     40 C17        20.6510    0.1190   23.6950 c3        1 PEV     -0.078400
     41 C18        20.5020   -0.7580   24.9200 c3        1 PEV     -0.079400
     42 C19        20.9850   -0.0490   26.1670 c3        1 PEV     -0.078400
     43 C20        20.8370   -0.9270   27.3910 c3        1 PEV     -0.079400
     44 C21        21.3190   -0.2170   28.6380 c3        1 PEV     -0.078400
     45 C22        21.1720   -1.0960   29.8620 c3        1 PEV     -0.079400
     46 C23        21.6540   -0.3870   31.1090 c3        1 PEV     -0.079400
     47 C24        21.5060   -1.2650   32.3330 c3        1 PEV     -0.079400
     48 C25        21.9890   -0.5570   33.5810 c3        1 PEV     -0.080400
     49 C26        21.8440   -1.4280   34.8030 c3        1 PEV     -0.092100
     50 H481       -0.0750    0.2360   -1.8650 hc        1 PEV      0.031367
     51 H482       -0.2350    0.9920   -0.2260 hc        1 PEV      0.031367
     52 H483       -0.1660   -0.8100   -0.3880 hc        1 PEV      0.031367
     53 H471        2.1160    1.1590   -1.1100 hc        1 PEV      0.038200
     54 H472        2.1860   -0.6370   -1.2720 hc        1 PEV      0.038200
     55 H461        1.7300    0.9220    1.3660 hc        1 PEV      0.039200
     56 H462        1.8000   -0.8750    1.2040 hc        1 PEV      0.039200
     57 H451        4.1380   -0.7020    0.2840 hc        1 PEV      0.039200
     58 H452        4.0690    1.0950    0.4460 hc        1 PEV      0.039200
     59 H441        3.7530   -0.9390    2.7620 hc        1 PEV      0.039200
     60 H442        3.6840    0.8570    2.9240 hc        1 PEV      0.039200
     61 H431        6.0920   -0.7660    1.8420 hc        1 PEV      0.039200
     62 H432        6.0220    1.0300    2.0030 hc        1 PEV      0.039200
     63 H421        5.7070   -1.0040    4.3200 hc        1 PEV      0.039200
     64 H422        5.6380    0.7930    4.4810 hc        1 PEV      0.039200
     65 H411        8.0450   -0.8310    3.4000 hc        1 PEV      0.039200
     66 H412        7.9760    0.9650    3.5610 hc        1 PEV      0.039200
     67 H401        7.5910    0.7280    6.0390 hc        1 PEV      0.039200
     68 H402        7.6610   -1.0680    5.8780 hc        1 PEV      0.039200
     69 H391        9.9990   -0.8960    4.9570 hc        1 PEV      0.039200
     70 H392        9.9300    0.9010    5.1180 hc        1 PEV      0.039200
     71 H381        9.5450    0.6640    7.5960 hc        1 PEV      0.039200
     72 H382        9.6140   -1.1330    7.4350 hc        1 PEV      0.039200
     73 H371       11.8840    0.8360    6.6750 hc        1 PEV      0.040200
     74 H372       11.9530   -0.9610    6.5150 hc        1 PEV      0.040200
     75 H361       11.5680   -1.1970    8.9930 hc        1 PEV      0.038700
     76 H362       11.4990    0.6000    9.1540 hc        1 PEV      0.038700
     77 H351       13.8380    0.7720    8.2330 hc        1 PEV      0.041700
     78 H352       13.9060   -1.0240    8.0720 hc        1 PEV      0.041700
     79 H341       13.5250   -1.2640   10.5480 hc        1 PEV      0.039200
     80 H342       13.4500    0.5330   10.7110 hc        1 PEV      0.039200
     81 H331       15.8650   -1.0740    9.6150 hc        1 PEV      0.055700
     82 H332       15.7940    0.7200    9.8030 hc        1 PEV      0.055700
     83 H321       15.5640   -1.3840   12.0750 hc        1 PEV      0.075700
     84 H322       15.3550    0.4040   12.2990 hc        1 PEV      0.075700
     85 H2         19.8340   -0.7670   12.0340 h1        1 PEV      0.080700
     86 H11        19.1540   -2.3330   14.6640 h1        1 PEV      0.047700
     87 H12        19.3260   -3.0900   13.0060 h1        1 PEV      0.047700
     88 H41        21.7060   -4.7320   16.9790 h1        1 PEV      0.016200
     89 H42        21.7280   -3.2980   18.1210 h1        1 PEV      0.016200
     90 H51        19.2680   -3.2230   18.1970 h1        1 PEV      0.025700
     91 H52        19.9180   -4.8430   18.7230 h1        1 PEV      0.025700
     92 HN61       19.3230   -5.5930   16.4680 hn        1 PEV      0.359800
     93 HN62       18.5540   -4.2000   16.2180 hn        1 PEV      0.359800
     94 H31        20.7100    0.4550   13.9310 h1        1 PEV      0.068200
     95 H32        19.0890    1.2280   13.5100 h1        1 PEV      0.068200
     96 H121       20.0780   -1.2680   17.4080 hc        1 PEV      0.103200
     97 H122       18.4330   -0.5140   17.5650 hc        1 PEV      0.103200
     98 H131       19.3820    1.3920   18.8820 hc        1 PEV      0.048700
     99 H132       21.0550    0.7640   18.6300 hc        1 PEV      0.048700
    100 H141       18.7600   -0.7190   20.1030 hc        1 PEV      0.044200
    101 H142       20.4210   -1.3710   19.8300 hc        1 PEV      0.044200
    102 H151       21.3940    0.5770   21.0970 hc        1 PEV      0.038200
    103 H152       19.7340    1.2350   21.3660 hc        1 PEV      0.038200
    104 H161       19.0920   -0.8810   22.5740 hc        1 PEV      0.040700
    105 H162       20.7520   -1.5380   22.3050 hc        1 PEV      0.040700
    106 H171       20.0680    1.0670   23.8380 hc        1 PEV      0.037700
    107 H172       21.7270    0.4100   23.5690 hc        1 PEV      0.037700
    108 H181       21.0860   -1.7050   24.7760 hc        1 PEV      0.039700
    109 H182       19.4260   -1.0490   25.0450 hc        1 PEV      0.039700
    110 H191       22.0610    0.2420   26.0410 hc        1 PEV      0.038200
    111 H192       20.4010    0.8990   26.3100 hc        1 PEV      0.038200
    112 H201       21.4210   -1.8740   27.2470 hc        1 PEV      0.039700
    113 H202       19.7610   -1.2180   27.5160 hc        1 PEV      0.039700
    114 H211       20.7350    0.7300   28.7820 hc        1 PEV      0.038700
    115 H212       22.3950    0.0740   28.5120 hc        1 PEV      0.038700
    116 H221       20.0960   -1.3880   29.9880 hc        1 PEV      0.039200
    117 H222       21.7560   -2.0420   29.7180 hc        1 PEV      0.039200
    118 H231       22.7300   -0.0950   30.9830 hc        1 PEV      0.038200
    119 H232       21.0700    0.5600   31.2530 hc        1 PEV      0.038200
    120 H241       22.0910   -2.2120   32.1890 hc        1 PEV      0.039200
    121 H242       20.4310   -1.5570   32.4590 hc        1 PEV      0.039200
    122 H251       23.0640   -0.2640   33.4530 hc        1 PEV      0.037700
    123 H252       21.4040    0.3910   33.7220 hc        1 PEV      0.037700
    124 H261       22.2050   -0.8870   35.7110 hc        1 PEV      0.031367
    125 H262       20.7750   -1.7100   34.9610 hc        1 PEV      0.031367
    126 H263       22.4390   -2.3660   34.6910 hc        1 PEV      0.031367
@<TRIPOS>BOND
     1    1    2 1
     2    1   50 1
     3    1   51 1
     4    1   52 1
     5    2    3 1
     6    2   53 1
     7    2   54 1
     8    3    4 1
     9    3   55 1
    10    3   56 1
    11    4    5 1
    12    4   57 1
    13    4   58 1
    14    5    6 1
    15    5   59 1
    16    5   60 1
    17    6    7 1
    18    6   61 1
    19    6   62 1
    20    7    8 1
    21    7   63 1
    22    7   64 1
    23    8    9 1
    24    8   65 1
    25    8   66 1
    26    9   10 1
    27    9   67 1
    28    9   68 1
    29   10   11 1
    30   10   69 1
    31   10   70 1
    32   11   12 1
    33   11   71 1
    34   11   72 1
    35   12   13 1
    36   12   73 1
    37   12   74 1
    38   13   14 1
    39   13   75 1
    40   13   76 1
    41   14   15 1
    42   14   77 1
    43   14   78 1
    44   15   16 1
    45   15   79 1
    46   15   80 1
    47   16   17 1
    48   16   81 1
    49   16   82 1
    50   17   18 1
    51   17   83 1
    52   17   84 1
    53   18   19 2
    54   18   20 1
    55   20   21 1
    56   21   22 1
    57   21   31 1
    58   21   85 1
    59   22   23 1
    60   22   86 1
    61   22   87 1
    62   23   24 1
    63   24   25 1
    64   24   26 1
    65   24   27 1
    66   27   28 1
    67   28   29 1
    68   28   88 1
    69   28   89 1
    70   29   30 1
    71   29   90 1
    72   29   91 1
    73   30   92 1
    74   30   93 1
    75   31   32 1
    76   31   94 1
    77   31   95 1
    78   32   33 1
    79   33   34 2
    80   33   35 1
    81   35   36 1
    82   35   96 1
    83   35   97 1
    84   36   37 1
    85   36   98 1
    86   36   99 1
    87   37   38 1
    88   37  100 1
    89   37  101 1
    90   38   39 1
    91   38  102 1
    92   38  103 1
    93   39   40 1
    94   39  104 1
    95   39  105 1
    96   40   41 1
    97   40  106 1
    98   40  107 1
    99   41   42 1
   100   41  108 1
   101   41  109 1
   102   42   43 1
   103   42  110 1
   104   42  111 1
   105   43   44 1
   106   43  112 1
   107   43  113 1
   108   44   45 1
   109   44  114 1
   110   44  115 1
   111   45   46 1
   112   45  116 1
   113   45  117 1
   114   46   47 1
   115   46  118 1
   116   46  119 1
   117   47   48 1
   118   47  120 1
   119   47  121 1
   120   48   49 1
   121   48  122 1
   122   48  123 1
   123   49  124 1
   124   49  125 1
   125   49  126 1
@<TRIPOS>SUBSTRUCTURE
     1 PEV         1 TEMP              0 ****  ****    0 ROOT
