@<TRIPOS>MOLECULE
PEW
  126   125     1     0     0
SMALL
bcc


@<TRIPOS>ATOM
      1 C48         0.2900   -2.8820    0.9390 c3        1 PEW     -0.092100
      2 C47         1.7400   -2.5020    0.7860 c3        1 PEW     -0.080400
      3 C46         2.2630   -1.7970    2.0190 c3        1 PEW     -0.079400
      4 C45         3.7200   -1.4180    1.8610 c3        1 PEW     -0.079400
      5 C44         4.2410   -0.7120    3.0940 c3        1 PEW     -0.079400
      6 C43         5.6980   -0.3330    2.9350 c3        1 PEW     -0.078400
      7 C42         6.2170    0.3720    4.1710 c3        1 PEW     -0.083400
      8 C41         7.6740    0.7500    4.0010 c3        1 PEW     -0.082400
      9 C40         8.2460    1.4030    5.2460 c3        1 PEW      0.014700
     10 BR2         7.5400    3.2000    5.5130 br        1 PEW     -0.162400
     11 C39         9.7660    1.3860    5.2400 c3        1 PEW      0.014700
     12 BR1        10.4990    2.5830    3.8900 br        1 PEW     -0.160400
     13 C38        10.3360    1.6690    6.6180 c3        1 PEW     -0.082400
     14 C37        11.7750    1.2150    6.7450 c3        1 PEW     -0.083400
     15 C36        12.2840    1.4290    8.1550 c3        1 PEW     -0.078400
     16 C35        13.7080    0.9360    8.3020 c3        1 PEW     -0.079400
     17 C34        14.2120    1.1280    9.7160 c3        1 PEW     -0.078400
     18 C33        15.6190    0.5920    9.8700 c3        1 PEW     -0.079400
     19 C32        16.1190    0.7860   11.2850 c3        1 PEW     -0.131400
     20 C31        17.4400    0.1060   11.4920 c         1 PEW      0.633100
     21 O31        17.8850   -0.8850   10.9050 o         1 PEW     -0.563000
     22 O2         18.1720    0.7000   12.4720 os        1 PEW     -0.425900
     23 C2         19.4620    0.1380   12.7950 c3        1 PEW      0.136100
     24 C1         20.2300    1.2860   13.4630 c3        1 PEW      0.181400
     25 O3P        21.5390    0.8550   13.6920 os        1 PEW     -0.560200
     26 P          22.4020    1.9250   14.6020 p5        1 PEW      1.427800
     27 O1P        23.7960    1.4590   14.7120 o         1 PEW     -0.827000
     28 O2P        21.9450    3.2770   14.2380 o         1 PEW     -0.827000
     29 O4P        21.7150    1.5290   16.0680 os        1 PEW     -0.591200
     30 C4         22.4280    1.9500   17.1870 c3        1 PEW      0.161400
     31 C5         23.0650    0.7680   17.9430 c3        1 PEW      0.132800
     32 N6         24.1370    0.0620   17.2880 n3        1 PEW     -0.907800
     33 C3         19.3000   -1.0810   13.7010 c3        1 PEW      0.126400
     34 O3         18.8580   -0.6270   14.9860 os        1 PEW     -0.442900
     35 C11        19.3840   -1.2560   16.0850 c         1 PEW      0.653100
     36 O11        19.8260   -2.3990   15.9490 o         1 PEW     -0.560000
     37 C12        19.3180   -0.4000   17.3080 c3        1 PEW     -0.149400
     38 C13        19.5360   -1.2050   18.5680 c3        1 PEW     -0.074400
     39 C14        19.6090   -0.2970   19.7770 c3        1 PEW     -0.080400
     40 C15        19.8050   -1.0950   21.0490 c3        1 PEW     -0.078400
     41 C16        19.8810   -0.1890   22.2590 c3        1 PEW     -0.079400
     42 C17        20.0770   -0.9850   23.5310 c3        1 PEW     -0.078400
     43 C18        20.1530   -0.0790   24.7410 c3        1 PEW     -0.079400
     44 C19        20.3490   -0.8760   26.0130 c3        1 PEW     -0.078400
     45 C20        20.4250    0.0300   27.2230 c3        1 PEW     -0.079400
     46 C21        20.6200   -0.7660   28.4950 c3        1 PEW     -0.078400
     47 C22        20.6950    0.1400   29.7050 c3        1 PEW     -0.079400
     48 C23        20.8910   -0.6560   30.9780 c3        1 PEW     -0.079400
     49 C24        20.9660    0.2500   32.1880 c3        1 PEW     -0.079400
     50 C25        21.1610   -0.5460   33.4610 c3        1 PEW     -0.080400
     51 C26        21.2370    0.3520   34.6690 c3        1 PEW     -0.092100
     52 H481        0.1510   -3.5680    1.8100 hc        1 PEW      0.032033
     53 H482       -0.3400   -1.9740    1.1060 hc        1 PEW      0.032033
     54 H483       -0.0750   -3.4000    0.0200 hc        1 PEW      0.032033
     55 H471        1.8630   -1.8340   -0.1070 hc        1 PEW      0.038700
     56 H472        2.3520   -3.4230    0.5950 hc        1 PEW      0.038700
     57 H461        1.6530   -0.8750    2.2110 hc        1 PEW      0.039700
     58 H462        2.1430   -2.4640    2.9130 hc        1 PEW      0.039700
     59 H451        3.8400   -0.7500    0.9670 hc        1 PEW      0.039700
     60 H452        4.3300   -2.3400    1.6690 hc        1 PEW      0.039700
     61 H441        4.1210   -1.3790    3.9880 hc        1 PEW      0.040700
     62 H442        3.6310    0.2100    3.2860 hc        1 PEW      0.040700
     63 H431        5.8170    0.3360    2.0430 hc        1 PEW      0.041200
     64 H432        6.3070   -1.2550    2.7420 hc        1 PEW      0.041200
     65 H421        6.1010   -0.3000    5.0620 hc        1 PEW      0.047700
     66 H422        5.6020    1.2900    4.3630 hc        1 PEW      0.047700
     67 H411        7.7890    1.4280    3.1150 hc        1 PEW      0.060700
     68 H412        8.2660   -0.1810    3.7830 hc        1 PEW      0.060700
     69 H40         7.8900    0.8410    6.1500 h1        1 PEW      0.084700
     70 H39        10.1050    0.3690    4.9070 h1        1 PEW      0.084700
     71 H381        9.7160    1.1230    7.3810 hc        1 PEW      0.060700
     72 H382       10.2610    2.7630    6.8580 hc        1 PEW      0.060700
     73 H371       12.4220    1.7800    6.0240 hc        1 PEW      0.048200
     74 H372       11.8540    0.1270    6.4800 hc        1 PEW      0.048200
     75 H361       12.2340    2.5190    8.4120 hc        1 PEW      0.040700
     76 H362       11.6230    0.8870    8.8820 hc        1 PEW      0.040700
     77 H351       13.7610   -0.1510    8.0290 hc        1 PEW      0.043200
     78 H352       14.3740    1.4880    7.5870 hc        1 PEW      0.043200
     79 H341       13.5280    0.6020   10.4340 hc        1 PEW      0.039700
     80 H342       14.1920    2.2180    9.9790 hc        1 PEW      0.039700
     81 H331       15.6450   -0.5010    9.6130 hc        1 PEW      0.056700
     82 H332       16.3060    1.1150    9.1540 hc        1 PEW      0.056700
     83 H321       15.3960    0.3450   12.0220 hc        1 PEW      0.076200
     84 H322       16.2220    1.8780   11.5230 hc        1 PEW      0.076200
     85 H2         19.9770   -0.1910   11.8510 h1        1 PEW      0.080700
     86 H11        20.2460    2.1880   12.7930 h1        1 PEW      0.051200
     87 H12        19.7490    1.5610   14.4410 h1        1 PEW      0.051200
     88 H41        21.7030    2.4570   17.8870 h1        1 PEW      0.014700
     89 H42        23.2230    2.6890   16.8880 h1        1 PEW      0.014700
     90 H51        23.4720    1.1770   18.9120 h1        1 PEW      0.027200
     91 H52        22.2480    0.0330   18.1910 h1        1 PEW      0.027200
     92 HN61       23.7700   -0.5180   16.5560 hn        1 PEW      0.361800
     93 HN62       24.7650    0.7150   16.8500 hn        1 PEW      0.361800
     94 H31        18.5170   -1.7760   13.3010 h1        1 PEW      0.068200
     95 H32        20.2890   -1.6050   13.7860 h1        1 PEW      0.068200
     96 H121       20.1280    0.3840   17.1880 hc        1 PEW      0.101700
     97 H122       18.3330    0.1350   17.3370 hc        1 PEW      0.101700
     98 H131       18.7030   -1.9460   18.6950 hc        1 PEW      0.050200
     99 H132       20.4890   -1.7910   18.4730 hc        1 PEW      0.050200
    100 H141       20.4590    0.4250   19.6490 hc        1 PEW      0.043200
    101 H142       18.6670    0.3080   19.8530 hc        1 PEW      0.043200
    102 H151       18.9580   -1.8190   21.1740 hc        1 PEW      0.039200
    103 H152       20.7470   -1.6980   20.9700 hc        1 PEW      0.039200
    104 H161       18.9400    0.4170   22.3350 hc        1 PEW      0.040200
    105 H162       20.7300    0.5340   22.1330 hc        1 PEW      0.040200
    106 H171       21.0190   -1.5900   23.4530 hc        1 PEW      0.038200
    107 H172       19.2300   -1.7100   23.6550 hc        1 PEW      0.038200
    108 H181       19.2120    0.5260   24.8170 hc        1 PEW      0.039200
    109 H182       21.0020    0.6440   24.6150 hc        1 PEW      0.039200
    110 H191       19.5010   -1.6000   26.1380 hc        1 PEW      0.038200
    111 H192       21.2910   -1.4800   25.9360 hc        1 PEW      0.038200
    112 H201       21.2730    0.7540   27.0980 hc        1 PEW      0.039200
    113 H202       19.4830    0.6360   27.2990 hc        1 PEW      0.039200
    114 H211       19.7720   -1.4900   28.6200 hc        1 PEW      0.038700
    115 H212       21.5620   -1.3710   28.4190 hc        1 PEW      0.038700
    116 H221       21.5440    0.8630   29.5810 hc        1 PEW      0.039200
    117 H222       19.7540    0.7450   29.7810 hc        1 PEW      0.039200
    118 H231       21.8320   -1.2620   30.9010 hc        1 PEW      0.038700
    119 H232       20.0430   -1.3800   31.1020 hc        1 PEW      0.038700
    120 H241       21.8150    0.9730   32.0630 hc        1 PEW      0.039200
    121 H242       20.0250    0.8550   32.2640 hc        1 PEW      0.039200
    122 H251       20.3130   -1.2700   33.5830 hc        1 PEW      0.038200
    123 H252       22.1030   -1.1510   33.3820 hc        1 PEW      0.038200
    124 H261       22.0920    1.0650   34.5770 hc        1 PEW      0.031367
    125 H262       21.3810   -0.2540   35.5950 hc        1 PEW      0.031367
    126 H263       20.2980    0.9460   34.7780 hc        1 PEW      0.031367
@<TRIPOS>BOND
     1    1    2 1   
     2    1   52 1   
     3    1   53 1   
     4    1   54 1   
     5    2    3 1   
     6    2   55 1   
     7    2   56 1   
     8    3    4 1   
     9    3   57 1   
    10    3   58 1   
    11    4    5 1   
    12    4   59 1   
    13    4   60 1   
    14    5    6 1   
    15    5   61 1   
    16    5   62 1   
    17    6    7 1   
    18    6   63 1   
    19    6   64 1   
    20    7    8 1   
    21    7   65 1   
    22    7   66 1   
    23    8    9 1   
    24    8   67 1   
    25    8   68 1   
    26    9   10 1   
    27    9   11 1   
    28    9   69 1   
    29   11   12 1   
    30   11   13 1   
    31   11   70 1   
    32   13   14 1   
    33   13   71 1   
    34   13   72 1   
    35   14   15 1   
    36   14   73 1   
    37   14   74 1   
    38   15   16 1   
    39   15   75 1   
    40   15   76 1   
    41   16   17 1   
    42   16   77 1   
    43   16   78 1   
    44   17   18 1   
    45   17   79 1   
    46   17   80 1   
    47   18   19 1   
    48   18   81 1   
    49   18   82 1   
    50   19   20 1   
    51   19   83 1   
    52   19   84 1   
    53   20   21 2   
    54   20   22 1   
    55   22   23 1   
    56   23   24 1   
    57   23   33 1   
    58   23   85 1   
    59   24   25 1   
    60   24   86 1   
    61   24   87 1   
    62   25   26 1   
    63   26   27 1   
    64   26   28 1   
    65   26   29 1   
    66   29   30 1   
    67   30   31 1   
    68   30   88 1   
    69   30   89 1   
    70   31   32 1   
    71   31   90 1   
    72   31   91 1   
    73   32   92 1   
    74   32   93 1   
    75   33   34 1   
    76   33   94 1   
    77   33   95 1   
    78   34   35 1   
    79   35   36 2   
    80   35   37 1   
    81   37   38 1   
    82   37   96 1   
    83   37   97 1   
    84   38   39 1   
    85   38   98 1   
    86   38   99 1   
    87   39   40 1   
    88   39  100 1   
    89   39  101 1   
    90   40   41 1   
    91   40  102 1   
    92   40  103 1   
    93   41   42 1   
    94   41  104 1   
    95   41  105 1   
    96   42   43 1   
    97   42  106 1   
    98   42  107 1   
    99   43   44 1   
   100   43  108 1   
   101   43  109 1   
   102   44   45 1   
   103   44  110 1   
   104   44  111 1   
   105   45   46 1   
   106   45  112 1   
   107   45  113 1   
   108   46   47 1   
   109   46  114 1   
   110   46  115 1   
   111   47   48 1   
   112   47  116 1   
   113   47  117 1   
   114   48   49 1   
   115   48  118 1   
   116   48  119 1   
   117   49   50 1   
   118   49  120 1   
   119   49  121 1   
   120   50   51 1   
   121   50  122 1   
   122   50  123 1   
   123   51  124 1   
   124   51  125 1   
   125   51  126 1   
@<TRIPOS>SUBSTRUCTURE
     1 PEW         1 TEMP              0 ****  ****    0 ROOT
