@<TRIPOS>MOLECULE
PEX
   85    84     1     0     0
SMALL
bcc


@<TRIPOS>ATOM
      1 O1           0.0000     0.0000     0.0000 o          1 PEX      -0.661500
      2 O2           2.0600    -1.2450    -0.7560 o          1 PEX      -0.661500
      3 P1           1.5450     0.0000     0.0000 p5         1 PEX       0.900800
      4 O3           2.0820     0.0000     1.5170 os         1 PEX      -0.440200
      5 C1           1.4800    -1.1200     2.1690 c3         1 PEX       0.225400
      6 C2           1.9510    -1.1790     3.6230 c3         1 PEX       0.168100
      7 C3           3.4810    -1.1990     3.6630 c3         1 PEX       0.238400
      8 O4           3.9990    -0.0570     2.9320 os         1 PEX      -0.362900
      9 C4           5.3250     0.1310     2.8340 c          1 PEX       0.692100
     10 O5           6.0870    -0.6500     3.3530 o          1 PEX      -0.611000
     11 C5           5.8630     1.3170     2.0740 c3         1 PEX      -0.064400
     12 C6           7.3930     1.2960     2.1150 c3         1 PEX      -0.023400
     13 C7           7.9390     2.5000     1.3450 c3         1 PEX      -0.026400
     14 C8           9.4680     2.4790     1.3840 c3         1 PEX      -0.028400
     15 C9          10.0150     3.6830     0.6140 c3         1 PEX      -0.028400
     16 C10         11.5440     3.6630     0.6540 c3         1 PEX      -0.029400
     17 C11         12.0900     4.8660    -0.1170 c3         1 PEX      -0.029400
     18 C12         13.6190     4.8460    -0.0760 c3         1 PEX      -0.028400
     19 C13         14.1660     6.0500    -0.8470 c3         1 PEX       0.006900
     20 O6           1.4640    -0.0120     4.3370 os         1 PEX      -0.404900
     21 C14          0.2730    -0.0530     4.9560 c          1 PEX       0.699100
     22 O7          -0.3920    -1.0600     4.9200 o          1 PEX      -0.595000
     23 C15         -0.2320     1.1580     5.6960 c3         1 PEX      -0.068400
     24 C16         -1.6010     0.8480     6.3070 c3         1 PEX      -0.021400
     25 C17         -2.1150     2.0770     7.0590 c3         1 PEX      -0.029400
     26 C18         -3.4830     1.7670     7.6680 c3         1 PEX      -0.027400
     27 C19         -3.9970     2.9960     8.4200 c3         1 PEX      -0.029400
     28 C20         -5.3650     2.6860     9.0300 c3         1 PEX      -0.029400
     29 C21         -5.8790     3.9160     9.7820 c3         1 PEX      -0.029400
     30 C22         -7.2470     3.6060    10.3920 c3         1 PEX      -0.028400
     31 C23         -7.7610     4.8350    11.1440 c3         1 PEX       0.006900
     32 O8           2.0820     1.3140    -0.7600 os         1 PEX      -0.492200
     33 C24          1.4800     1.3170    -2.0550 c3         1 PEX       0.237400
     34 C25          1.9500     2.5480    -2.8330 c3         1 PEX      -0.070200
     35 N1           3.3960     2.4500    -3.0770 nz         1 PEX       0.085400
     36 H1           0.4020    -1.0170     2.1430 h1         1 PEX       0.027700
     37 H2           1.7680    -2.0320     1.6600 h1         1 PEX       0.027700
     38 H3           1.5660    -2.0760     4.0920 h1         1 PEX       0.038700
     39 H4           3.8420    -2.1130     3.2090 h1         1 PEX       0.009700
     40 H5           3.8150    -1.1510     4.6920 h1         1 PEX       0.009700
     41 H6           5.5290     1.2680     1.0450 hc         1 PEX       0.028200
     42 H7           5.5020     2.2310     2.5290 hc         1 PEX       0.028200
     43 H8           7.7270     1.3440     3.1440 hc         1 PEX       0.031700
     44 H9           7.7540     0.3820     1.6590 hc         1 PEX       0.031700
     45 H10          7.6040     2.4530     0.3160 hc         1 PEX       0.004200
     46 H11          7.5780     3.4140     1.8000 hc         1 PEX       0.004200
     47 H12          9.8030     2.5270     2.4130 hc         1 PEX       0.019200
     48 H13          9.8280     1.5650     0.9290 hc         1 PEX       0.019200
     49 H14          9.6540     4.5980     1.0690 hc         1 PEX       0.009200
     50 H15          9.6800     3.6360    -0.4150 hc         1 PEX       0.009200
     51 H16         11.8790     3.7110     1.6830 hc         1 PEX       0.016700
     52 H17         11.9050     2.7490     0.1990 hc         1 PEX       0.016700
     53 H18         11.7290     5.7810     0.3380 hc         1 PEX       0.012200
     54 H19         11.7550     4.8180    -1.1460 hc         1 PEX       0.012200
     55 H20         13.9540     4.8940     0.9530 hc         1 PEX       0.013200
     56 H21         13.9800     3.9320    -0.5310 hc         1 PEX       0.013200
     57 H22         15.2490     6.0350    -0.8190 hc         1 PEX       0.000033
     58 H23         13.8060     6.9640    -0.3910 hc         1 PEX       0.000033
     59 H24         13.8310     6.0030    -1.8760 hc         1 PEX       0.000033
     60 H25          0.4650     1.4170     6.4850 hc         1 PEX       0.033200
     61 H26         -0.3240     1.9900     5.0080 hc         1 PEX       0.033200
     62 H27         -2.2980     0.5890     5.5190 hc         1 PEX       0.030700
     63 H28         -1.5090     0.0160     6.9950 hc         1 PEX       0.030700
     64 H29         -2.2060     2.9090     6.3720 hc         1 PEX       0.011200
     65 H30         -1.4180     2.3350     7.8480 hc         1 PEX       0.011200
     66 H31         -4.1800     1.5090     6.8790 hc         1 PEX       0.017200
     67 H32         -3.3920     0.9350     8.3560 hc         1 PEX       0.017200
     68 H33         -3.3000     3.2540     9.2090 hc         1 PEX       0.013200
     69 H34         -4.0880     3.8280     7.7330 hc         1 PEX       0.013200
     70 H35         -6.0620     2.4280     8.2420 hc         1 PEX       0.015200
     71 H36         -5.2740     1.8540     9.7180 hc         1 PEX       0.015200
     72 H37         -5.1820     4.1740    10.5710 hc         1 PEX       0.013700
     73 H38         -5.9700     4.7480     9.0940 hc         1 PEX       0.013700
     74 H39         -7.9440     3.3480     9.6040 hc         1 PEX       0.012700
     75 H40         -7.1560     2.7740    11.0800 hc         1 PEX       0.012700
     76 H41         -7.0640     5.0930    11.9330 hc         1 PEX      -0.000633
     77 H42         -7.8520     5.6670    10.4560 hc         1 PEX      -0.000633
     78 H43         -8.7300     4.6160    11.5760 hc         1 PEX      -0.000633
     79 H44          1.7680     0.4200    -2.5890 h1         1 PEX       0.050200
     80 H45          0.4020     1.3460    -1.9520 h1         1 PEX       0.050200
     81 H46          1.4270     2.5980    -3.7810 hx         1 PEX       0.069200
     82 H47          1.7410     3.4410    -2.2580 hx         1 PEX       0.069200
     83 H48          3.6770     3.1690    -3.7140 hn         1 PEX       0.216133
     84 H49          3.6080     1.5550    -3.4710 hn         1 PEX       0.216133
     85 H131         3.8880     2.5590    -2.2130 hn         1 PEX       0.216133
@<TRIPOS>BOND
     1     1     3 1   
     2     2     3 1   
     3     3     4 1   
     4     3    32 1   
     5     4     5 1   
     6     5     6 1   
     7     5    36 1   
     8     5    37 1   
     9     6     7 1   
    10     6    20 1   
    11     6    38 1   
    12     7     8 1   
    13     7    39 1   
    14     7    40 1   
    15     8     9 1   
    16     9    10 2   
    17     9    11 1   
    18    11    12 1   
    19    11    41 1   
    20    11    42 1   
    21    12    13 1   
    22    12    43 1   
    23    12    44 1   
    24    13    14 1   
    25    13    45 1   
    26    13    46 1   
    27    14    15 1   
    28    14    47 1   
    29    14    48 1   
    30    15    16 1   
    31    15    49 1   
    32    15    50 1   
    33    16    17 1   
    34    16    51 1   
    35    16    52 1   
    36    17    18 1   
    37    17    53 1   
    38    17    54 1   
    39    18    19 1   
    40    18    55 1   
    41    18    56 1   
    42    19    57 1   
    43    19    58 1   
    44    19    59 1   
    45    20    21 1   
    46    21    22 2   
    47    21    23 1   
    48    23    24 1   
    49    23    60 1   
    50    23    61 1   
    51    24    25 1   
    52    24    62 1   
    53    24    63 1   
    54    25    26 1   
    55    25    64 1   
    56    25    65 1   
    57    26    27 1   
    58    26    66 1   
    59    26    67 1   
    60    27    28 1   
    61    27    68 1   
    62    27    69 1   
    63    28    29 1   
    64    28    70 1   
    65    28    71 1   
    66    29    30 1   
    67    29    72 1   
    68    29    73 1   
    69    30    31 1   
    70    30    74 1   
    71    30    75 1   
    72    31    76 1   
    73    31    77 1   
    74    31    78 1   
    75    32    33 1   
    76    33    34 1   
    77    33    79 1   
    78    33    80 1   
    79    34    35 1   
    80    34    81 1   
    81    34    82 1   
    82    35    83 1   
    83    35    84 1   
    84    35    85 1   
@<TRIPOS>SUBSTRUCTURE
     1 PEX         1 TEMP              0 ****  ****    0 ROOT
