@<TRIPOS>MOLECULE
PEY
   24    26     1     0     0
SMALL
bcc


@<TRIPOS>ATOM
      1 C1          0.0180    0.0000   -0.0040 ca        1 PEY     -0.119000
      2 C2          1.4000   -0.0000   -0.0140 ca        1 PEY     -0.128000
      3 C3          2.1200   -0.0000    1.1930 ca        1 PEY     -0.127000
      4 C4          1.4430   -0.0000    2.3960 ca        1 PEY     -0.118000
      5 C5          0.0300   -0.0000    2.4260 ca        1 PEY     -0.036000
      6 C6         -0.7010    0.0000    1.2140 ca        1 PEY     -0.019000
      7 C7         -2.1470    0.0000    1.2600 ca        1 PEY     -0.019000
      8 C8         -2.7980    0.0000    2.5170 ca        1 PEY     -0.036000
      9 C9         -2.0220   -0.0000    3.7240 ca        1 PEY     -0.116000
     10 C10        -0.6660   -0.0000    3.6800 ca        1 PEY     -0.116000
     11 C11        -2.9430    0.0000    0.0910 ca        1 PEY     -0.119000
     12 C12        -4.3220    0.0000    0.1700 ca        1 PEY     -0.128000
     13 C13        -4.9630    0.0000    1.4210 ca        1 PEY     -0.127000
     14 C14        -4.2100    0.0000    2.5780 ca        1 PEY     -0.118000
     15 H1         -0.5220    0.0000   -0.9620 ha        1 PEY      0.132000
     16 H2          1.9450   -0.0000   -0.9700 ha        1 PEY      0.132000
     17 H3          3.2200   -0.0000    1.1700 ha        1 PEY      0.133000
     18 H4          1.9960   -0.0000    3.3480 ha        1 PEY      0.133000
     19 H9         -2.5620   -0.0000    4.6840 ha        1 PEY      0.133000
     20 H10        -0.0660   -0.0000    4.6030 ha        1 PEY      0.133000
     21 H11        -2.4650    0.0000   -0.8990 ha        1 PEY      0.132000
     22 H12        -4.9280    0.0000   -0.7480 ha        1 PEY      0.132000
     23 H13        -6.0620    0.0000    1.4690 ha        1 PEY      0.133000
     24 H14        -4.7000    0.0000    3.5630 ha        1 PEY      0.133000
@<TRIPOS>BOND
     1    1    2 ar  
     2    1    6 ar  
     3    1   15 1   
     4    2    3 ar  
     5    2   16 1   
     6    3    4 ar  
     7    3   17 1   
     8    4    5 ar  
     9    4   18 1   
    10    5    6 ar  
    11    5   10 ar  
    12    6    7 ar  
    13    7    8 ar  
    14    7   11 ar  
    15    8    9 ar  
    16    8   14 ar  
    17    9   10 ar  
    18    9   19 1   
    19   10   20 1   
    20   11   12 ar  
    21   11   21 1   
    22   12   13 ar  
    23   12   22 1   
    24   13   14 ar  
    25   13   23 1   
    26   14   24 1   
@<TRIPOS>SUBSTRUCTURE
     1 PEY         1 TEMP              0 ****  ****    0 ROOT
