@<TRIPOS>MOLECULE
molecule
   24    26     1     0     0
SMALL
bcc


@<TRIPOS>ATOM
      1 C1           0.0000     0.0000     0.0000 ca         1 PEY      -0.116500
      2 C2           1.3660     0.0000     0.0000 ca         1 PEY      -0.124000
      3 C3           2.0770     0.0000     1.1950 ca         1 PEY      -0.127500
      4 C4           1.4290     0.0000     2.3950 ca         1 PEY      -0.114000
      5 C5           0.0270     0.0000     2.4290 ca         1 PEY      -0.034000
      6 C6          -0.6910     0.0000     1.2120 ca         1 PEY      -0.023000
      7 C7          -2.1570     0.0000     1.2590 ca         1 PEY      -0.023000
      8 C8          -2.7950    -0.0000     2.5200 ca         1 PEY      -0.034000
      9 C9          -2.0190    -0.0000     3.7030 ca         1 PEY      -0.115000
     10 C10         -0.6710    -0.0000     3.6600 ca         1 PEY      -0.115000
     11 C11         -2.9240     0.0000     0.0940 ca         1 PEY      -0.116500
     12 C12         -4.2870     0.0000     0.1820 ca         1 PEY      -0.124000
     13 C13         -4.9200     0.0000     1.4200 ca         1 PEY      -0.127500
     14 C14         -4.1960     0.0000     2.5770 ca         1 PEY      -0.114000
     15 H1          -0.5440     0.0000    -0.9370 ha         1 PEY       0.133000
     16 H2           1.9010     0.0000    -0.9420 ha         1 PEY       0.129000
     17 H3           3.1600    -0.0000     1.1720 ha         1 PEY       0.129000
     18 H4           1.9950     0.0000     3.3190 ha         1 PEY       0.132000
     19 H9          -2.5180    -0.0000     4.6640 ha         1 PEY       0.130000
     20 H10         -0.1110    -0.0000     4.5870 ha         1 PEY       0.130000
     21 H11         -2.4420     0.0000    -0.8760 ha         1 PEY       0.133000
     22 H12         -4.8820     0.0000    -0.7230 ha         1 PEY       0.129000
     23 H13         -6.0020     0.0000     1.4670 ha         1 PEY       0.129000
     24 H14         -4.7020     0.0000     3.5350 ha         1 PEY       0.132000
@<TRIPOS>BOND
     1     1     2 ar
     2     1     6 ar
     3     1    15 1
     4     2     3 ar
     5     2    16 1
     6     3     4 ar
     7     3    17 1
     8     4     5 ar
     9     4    18 1
    10     5     6 ar
    11     5    10 ar
    12     6     7 ar
    13     7     8 ar
    14     7    11 ar
    15     8     9 ar
    16     8    14 ar
    17     9    10 ar
    18     9    19 1
    19    10    20 1
    20    11    12 ar
    21    11    21 1
    22    12    13 ar
    23    12    22 1
    24    13    14 ar
    25    13    23 1
    26    14    24 1
@<TRIPOS>SUBSTRUCTURE
     1 PEY         1 TEMP              0 ****  ****    0 ROOT
