@<TRIPOS>MOLECULE
molecule
   17    16     1     0     0
SMALL
bcc


@<TRIPOS>ATOM
      1 O1           0.0000     0.0000     0.0000 o          1 PEZ      -0.899800
      2 C1           1.3420     0.0000     0.0000 c          1 PEZ       0.905600
      3 O2'          1.9450    -0.0010    -1.0460 o          1 PEZ      -0.899800
      4 C2           2.0960     0.0000     1.3040 c3         1 PEZ       0.083100
      5 O2           3.5000     0.0010     1.0430 os         1 PEZ      -0.540200
      6 P            4.1000     1.3340     1.7160 p5         1 PEZ       1.201900
      7 O1P          3.8360     1.3150     3.1700 o          1 PEZ      -0.940833
      8 O2P          5.6870     1.3980     1.4580 o          1 PEZ      -0.940833
      9 O3P          3.3970     2.6260     1.0600 o          1 PEZ      -0.940833
     10 C3           1.7260    -1.2480     2.1080 c3         1 PEZ      -0.072400
     11 C4           2.4910    -1.2470     3.4330 c3         1 PEZ      -0.085100
     12 H2           1.8350     0.8850     1.8720 h1         1 PEZ       0.069700
     13 H31          0.6610    -1.2460     2.3060 hc         1 PEZ       0.002700
     14 H32          1.9870    -2.1330     1.5400 hc         1 PEZ       0.002700
     15 H41          3.5550    -1.2960     3.2350 hc         1 PEZ       0.018033
     16 H42          2.2670    -0.3390     3.9790 hc         1 PEZ       0.018033
     17 H43          2.1930    -2.1060     4.0220 hc         1 PEZ       0.018033
@<TRIPOS>BOND
     1     1     2 1
     2     2     3 1
     3     2     4 1
     4     4     5 1
     5     4    10 1
     6     4    12 1
     7     5     6 1
     8     6     7 1
     9     6     8 1
    10     6     9 1
    11    10    11 1
    12    10    13 1
    13    10    14 1
    14    11    15 1
    15    11    16 1
    16    11    17 1
@<TRIPOS>SUBSTRUCTURE
     1 PEZ         1 TEMP              0 ****  ****    0 ROOT
