@<TRIPOS>MOLECULE
PEZ
   17    16     1     0     0
SMALL
bcc


@<TRIPOS>ATOM
      1 O1         -0.0930    0.6150    0.1820 o         1 PEZ     -0.920300
      2 C1          1.0120   -0.0230    0.1070 c         1 PEZ      0.893600
      3 O2'         1.1970   -0.8290   -0.8630 o         1 PEZ     -0.920300
      4 C2          2.0230    0.0990    1.2840 c3        1 PEZ      0.157100
      5 O2          3.2690    0.5440    0.9040 os        1 PEZ     -0.568200
      6 P           4.0990    1.6720    1.9040 p5        1 PEZ      1.329900
      7 O1P         3.4040    1.5890    3.2470 o         1 PEZ     -0.953500
      8 O2P         5.5050    1.1110    1.9120 o         1 PEZ     -0.953500
      9 O3P         3.9790    3.0100    1.2140 o         1 PEZ     -0.953500
     10 C3          2.0720   -1.3310    1.8870 c3        1 PEZ     -0.090400
     11 C4          2.6000   -1.3910    3.2950 c3        1 PEZ     -0.085100
     12 H2          1.5870    0.7980    2.0580 h1        1 PEZ      0.028700
     13 H31         1.0280   -1.7450    1.8720 hc        1 PEZ      0.000200
     14 H32         2.6950   -1.9650    1.2070 hc        1 PEZ      0.000200
     15 H41         2.1960   -2.2860    3.8400 hc        1 PEZ      0.011700
     16 H42         2.3280   -0.4610    3.8550 hc        1 PEZ      0.011700
     17 H43         3.7150   -1.4650    3.2950 hc        1 PEZ      0.011700
@<TRIPOS>BOND
     1    1    2 1   
     2    2    3 1   
     3    2    4 1   
     4    4    5 1   
     5    4   10 1   
     6    4   12 1   
     7    5    6 1   
     8    6    7 1   
     9    6    8 1   
    10    6    9 1   
    11   10   11 1   
    12   10   13 1   
    13   10   14 1   
    14   11   15 1   
    15   11   16 1   
    16   11   17 1   
@<TRIPOS>SUBSTRUCTURE
     1 PEZ         1 TEMP              0 ****  ****    0 ROOT
