@<TRIPOS>MOLECULE
molecule
   28    30     1     0     0
SMALL
bcc


@<TRIPOS>ATOM
      1 C1           0.0000     0.0000     0.0000 ca         1 PF       -0.032000
      2 C2           1.3560     0.0000     0.0000 ca         1 PF       -0.172000
      3 C3           2.0880     0.0000     1.1960 ca         1 PF        0.299600
      4 C4           1.4610    -0.0040     2.4210 ca         1 PF       -0.266500
      5 C5          -2.5570     0.0040     4.9720 ca         1 PF       -0.266500
      6 C6          -3.9320     0.0060     5.0180 ca         1 PF        0.299600
      7 C7          -4.7030     0.0050     3.8480 ca         1 PF       -0.172000
      8 C8          -4.1260     0.0040     2.6200 ca         1 PF       -0.032000
      9 C9          -2.0960     0.0010     1.2580 ca         1 PF        0.070000
     10 N10         -0.5760     0.0020     3.6520 na         1 PF       -0.112100
     11 C11          0.0550     0.0010     2.4810 ca         1 PF        0.104700
     12 C12         -2.7210     0.0030     2.5070 ca         1 PF       -0.141500
     13 C13         -0.7000     0.0010     1.2240 ca         1 PF       -0.141500
     14 C14         -1.9040     0.0030     3.7250 ca         1 PF        0.104700
     15 N15          3.4800    -0.0000     1.1430 nv         1 PF       -0.927700
     16 N16         -4.5720     0.0070     6.2550 nv         1 PF       -0.927700
     17 H1          -0.5440     0.0000    -0.9370 ha         1 PF        0.164500
     18 H2           1.8860     0.0030    -0.9450 ha         1 PF        0.166500
     19 H4           2.0460    -0.0040     3.3330 ha         1 PF        0.162000
     20 H5          -1.9810     0.0050     5.8900 ha         1 PF        0.162000
     21 H7          -5.7840     0.0070     3.9250 ha         1 PF        0.166500
     22 H8          -4.7430     0.0030     1.7300 ha         1 PF        0.164500
     23 H9          -2.6600    -0.2630     0.3710 ha         1 PF        0.175000
     24 H10         -0.0400     0.0020     4.4970 hn         1 PF        0.327700
     25 H151         3.9800     0.8670     1.1300 hn         1 PF        0.456300
     26 H152         3.9800    -0.8670     1.1270 hn         1 PF        0.456300
     27 H161        -4.0330     0.0070     7.0980 hn         1 PF        0.456300
     28 H162        -5.5720     0.0080     6.3010 hn         1 PF        0.456300
@<TRIPOS>BOND
     1     1     2 ar
     2     1    13 ar
     3     1    17 1
     4     2     3 ar
     5     2    18 1
     6     3     4 ar
     7     3    15 1
     8     4    11 ar
     9     4    19 1
    10     5     6 ar
    11     5    14 ar
    12     5    20 1
    13     6     7 ar
    14     6    16 1
    15     7     8 ar
    16     7    21 1
    17     8    12 ar
    18     8    22 1
    19     9    12 ar
    20     9    13 ar
    21     9    23 1
    22    10    11 1
    23    10    14 2
    24    10    24 1
    25    11    13 ar
    26    12    14 ar
    27    15    25 1
    28    15    26 1
    29    16    27 1
    30    16    28 1
@<TRIPOS>SUBSTRUCTURE
     1 PF          1 TEMP              0 ****  ****    0 ROOT
