@<TRIPOS>MOLECULE
PF0
   18    18     1     0     0
SMALL
bcc


@<TRIPOS>ATOM
      1 C1         -0.0180    0.1930   -0.0030 ca        1 PF0     -0.236000
      2 C2          1.3770    0.2080    0.0100 ca        1 PF0     -0.137000
      3 C3          2.0610    0.1190    1.2170 ca        1 PF0     -0.133000
      4 C4          1.3740    0.0200    2.4350 ca        1 PF0     -0.096600
      5 C5         -0.0280    0.0000    2.4450 ca        1 PF0     -0.064300
      6 C6         -0.7070    0.0870    1.2110 ca        1 PF0      0.079100
      7 C7         -0.7830   -0.0970    3.7140 c3        1 PF0     -0.036800
      8 C8          2.2070   -0.0680    3.7110 c         1 PF0      0.907200
      9 O1          3.3710   -0.5490    3.6070 o         1 PF0     -0.828800
     10 O2         -2.0930    0.0660    1.2430 oh        1 PF0     -0.516100
     11 O3          1.7130    0.3510    4.7950 o         1 PF0     -0.828800
     12 H36        -0.5690    0.2620   -0.9490 ha        1 PF0      0.102000
     13 H37         1.9270    0.2880   -0.9370 ha        1 PF0      0.104000
     14 H38         3.1630    0.1080    1.2460 ha        1 PF0      0.151000
     15 H32        -0.3310   -0.8850    4.3680 hc        1 PF0      0.046367
     16 H33        -1.8600   -0.3310    3.5350 hc        1 PF0      0.046367
     17 H34        -0.7010    0.8720    4.2690 hc        1 PF0      0.046367
     18 H23        -2.3990    0.1040    0.3270 ho        1 PF0      0.393000
@<TRIPOS>BOND
     1    1    2 ar  
     2    1    6 ar  
     3    1   12 1   
     4    2    3 ar  
     5    2   13 1   
     6    3    4 ar  
     7    3   14 1   
     8    4    5 ar  
     9    4    8 1   
    10    5    6 ar  
    11    5    7 1   
    12    6   10 1   
    13    7   15 1   
    14    7   16 1   
    15    7   17 1   
    16    8    9 1   
    17    8   11 1   
    18   10   18 1   
@<TRIPOS>SUBSTRUCTURE
     1 PF0         1 TEMP              0 ****  ****    0 ROOT
