@<TRIPOS>MOLECULE
molecule
   18    18     1     0     0
SMALL
bcc


@<TRIPOS>ATOM
      1 C1           0.0000     0.0000     0.0000 ca         1 PF0      -0.206000
      2 C2           1.3830     0.0000     0.0000 ca         1 PF0      -0.153000
      3 C3           2.0760     0.0000     1.1930 ca         1 PF0      -0.105000
      4 C4           1.3810     0.0010     2.4040 ca         1 PF0      -0.092600
      5 C5          -0.0150     0.0020     2.4010 ca         1 PF0      -0.066300
      6 C6          -0.7000     0.0010     1.1990 ca         1 PF0       0.070100
      7 C7          -0.7730     0.0030     3.7040 c3         1 PF0      -0.025800
      8 C8           2.1200     0.0020     3.6840 c          1 PF0       0.884200
      9 O1           3.4620    -0.1250     3.6860 o          1 PF0      -0.837300
     10 O2          -2.0600     0.0020     1.1920 oh         1 PF0      -0.524100
     11 O3           1.5190     0.1170     4.7320 o          1 PF0      -0.837300
     12 H36         -0.5390    -0.0000    -0.9400 ha         1 PF0       0.103000
     13 H37          1.9230    -0.0010    -0.9390 ha         1 PF0       0.105000
     14 H38          3.1590    -0.0000     1.1900 ha         1 PF0       0.153000
     15 H32         -1.8350    -0.0640     3.5030 hc         1 PF0       0.044700
     16 H33         -0.4640    -0.8460     4.3010 hc         1 PF0       0.044700
     17 H34         -0.5640     0.9190     4.2430 hc         1 PF0       0.044700
     18 H23         -2.3710     0.7120     0.6550 ho         1 PF0       0.396000
@<TRIPOS>BOND
     1     1     2 ar
     2     1     6 ar
     3     1    12 1
     4     2     3 ar
     5     2    13 1
     6     3     4 ar
     7     3    14 1
     8     4     5 ar
     9     4     8 1
    10     5     6 ar
    11     5     7 1
    12     6    10 1
    13     7    15 1
    14     7    16 1
    15     7    17 1
    16     8     9 1
    17     8    11 1
    18    10    18 1
@<TRIPOS>SUBSTRUCTURE
     1 PF0         1 TEMP              0 ****  ****    0 ROOT
