@<TRIPOS>MOLECULE
PF1
   29    29     1     0     0
SMALL
bcc


@<TRIPOS>ATOM
      1 OAD          0.0000     0.0000     0.0000 oh         1 PF1      -0.586800
      2 CAG          1.4300     0.0000     0.0000 c3         1 PF1       0.193400
      3 CAH          1.9390     0.0000     1.4430 c3         1 PF1       0.040000
      4 NAO          1.5520    -1.2520     2.0980 n          1 PF1      -0.180800
      5 CAE          2.3710    -2.3200     2.0470 c          1 PF1       0.622900
      6 OAC          2.0970    -3.3250     2.6690 o          1 PF1      -0.639100
      7 CAI          0.2730    -1.3420     2.8080 c3         1 PF1       0.140300
      8 C5          -0.7600    -1.9670     1.9060 ca         1 PF1      -0.342900
      9 C6          -0.3990    -2.5220     0.6930 ca         1 PF1       0.465200
     10 N1          -1.3340    -3.0620    -0.0740 nb         1 PF1      -0.628000
     11 C2          -2.5970    -3.0770     0.3020 ca         1 PF1       0.596300
     12 CAA         -3.6240    -3.7030    -0.6040 c3         1 PF1      -0.031400
     13 N3          -2.9860    -2.5600     1.4500 nb         1 PF1      -0.637000
     14 C4          -2.1060    -2.0040     2.2770 ca         1 PF1       0.535200
     15 NAB         -2.5180    -1.4650     3.4850 nv         1 PF1      -0.652500
     16 HOAD        -0.3140     0.6300    -0.6270 ho         1 PF1       0.393000
     17 HAG1         1.7910    -0.8840    -0.5110 h1         1 PF1       0.000200
     18 HAG2         1.7910     0.8850    -0.5100 h1         1 PF1       0.000200
     19 HAH1         3.0180     0.0900     1.4450 h1         1 PF1       0.028700
     20 HAH2         1.5060     0.8360     1.9790 h1         1 PF1       0.028700
     21 HAE          3.2960    -2.2670     1.4850 h5         1 PF1      -0.018800
     22 HAI1        -0.0510    -0.3490     3.0940 h1         1 PF1       0.038200
     23 HAI2         0.3950    -1.9520     3.6950 h1         1 PF1       0.038200
     24 H6           0.6370    -2.5150     0.3740 h4         1 PF1      -0.011900
     25 HAA1        -3.9960    -4.6150    -0.1530 hc         1 PF1       0.016367
     26 HAA2        -4.4450    -3.0120    -0.7520 hc         1 PF1       0.016367
     27 HAA3        -3.1690    -3.9330    -1.5600 hc         1 PF1       0.016367
     28 HAB1        -2.4450    -2.0060     4.3240 hn         1 PF1       0.278300
     29 HAB2        -2.9330    -0.5550     3.5110 hn         1 PF1       0.278300
@<TRIPOS>BOND
     1     1     2 1   
     2     1    16 1   
     3     2     3 1   
     4     2    17 1   
     5     2    18 1   
     6     3     4 1   
     7     3    19 1   
     8     3    20 1   
     9     4     5 1   
    10     4     7 1   
    11     5     6 2   
    12     5    21 1   
    13     7     8 1   
    14     7    22 1   
    15     7    23 1   
    16     8     9 ar  
    17     8    14 ar  
    18     9    10 ar  
    19     9    24 1   
    20    10    11 ar  
    21    11    12 1   
    22    11    13 ar  
    23    12    25 1   
    24    12    26 1   
    25    12    27 1   
    26    13    14 ar  
    27    14    15 1   
    28    15    28 1   
    29    15    29 1   
@<TRIPOS>SUBSTRUCTURE
     1 PF1         1 TEMP              0 ****  ****    0 ROOT
