@<TRIPOS>MOLECULE
molecule
   50    53     1     0     0
SMALL
bcc


@<TRIPOS>ATOM
      1 F26          0.0000     0.0000     0.0000 f          1 PF2      -0.226800
      2 C11          1.3990     0.0000     0.0000 c3         1 PF2       0.382600
      3 F25          1.8920    -1.0950    -0.7180 f          1 PF2      -0.226800
      4 C10          1.9460     0.0000     1.4450 c3         1 PF2      -0.139400
      5 C9           3.1560     0.9520     1.4160 c3         1 PF2       0.107000
      6 C12          1.9470     1.3280    -0.5800 c3         1 PF2       0.057000
      7 N8           3.2970     1.4300     0.0270 n          1 PF2      -0.508800
      8 C6           4.4220     1.8680    -0.5710 c          1 PF2       0.690100
      9 O7           5.4660     1.8980     0.0470 o          1 PF2      -0.558100
     10 C4           4.3850     2.3230    -2.0070 c3         1 PF2       0.091500
     11 N3           5.5720     3.1440    -2.3050 n7         1 PF2      -0.776200
     12 C2           6.3560     2.4740    -3.3640 c3         1 PF2       0.157800
     13 C5           4.4240     1.0990    -2.9460 c3         1 PF2      -0.089400
     14 C1           5.3310     1.5850    -4.1110 c3         1 PF2       0.132500
     15 N13          5.9960     0.4520    -4.7680 n3         1 PF2      -0.720600
     16 C18          6.9630     0.9210    -5.7720 c3         1 PF2       0.156300
     17 C17          7.6900    -0.2840    -6.3760 c3         1 PF2       0.176800
     18 N16          6.7090    -1.1940    -6.9800 nh         1 PF2      -0.685300
     19 C15          5.7410    -1.6620    -5.9760 c3         1 PF2       0.176800
     20 C14          5.0150    -0.4580    -5.3720 c3         1 PF2       0.156300
     21 C19          7.3360    -2.2610    -7.5990 ca         1 PF2       0.869900
     22 N23          6.5990    -3.1840    -8.1980 nb         1 PF2      -0.766500
     23 C24          7.1680    -4.2170    -8.7990 ca         1 PF2       0.482200
     24 C22          8.5500    -4.3250    -8.7960 ca         1 PF2      -0.419600
     25 C21          9.2890    -3.3400    -8.1600 ca         1 PF2       0.482200
     26 N20          8.6590    -2.3320    -7.5830 nb         1 PF2      -0.766500
     27 H10          2.2610    -0.9980     1.7270 hc         1 PF2       0.079200
     28 H10A         1.1940     0.3710     2.1310 hc         1 PF2       0.079200
     29 H9           4.0510     0.4190     1.7140 h1         1 PF2       0.064200
     30 H9A          2.9810     1.7910     2.0780 h1         1 PF2       0.064200
     31 H12          1.3270     2.1620    -0.2730 h1         1 PF2       0.071700
     32 H12A         2.0180     1.2710    -1.6600 h1         1 PF2       0.071700
     33 H4           3.4860     2.8980    -2.1930 h1         1 PF2       0.046700
     34 HN3          5.2820     4.0470    -2.6250 hn         1 PF2       0.352800
     35 H2           6.7790     3.2070    -4.0390 h1         1 PF2       0.066700
     36 H2A          7.1340     1.8620    -2.9250 h1         1 PF2       0.066700
     37 H5           4.8690     0.2480    -2.4450 hc         1 PF2       0.067200
     38 H5A          3.4300     0.8640    -3.3080 hc         1 PF2       0.067200
     39 H1           4.7610     2.1720    -4.8210 h1         1 PF2       0.030700
     40 H18          6.4400     1.4550    -6.5550 h1         1 PF2       0.045200
     41 H18A         7.6840     1.5760    -5.2990 h1         1 PF2       0.045200
     42 H17          8.2330    -0.8050    -5.5960 h1         1 PF2       0.062700
     43 H17A         8.3810     0.0580    -7.1370 h1         1 PF2       0.062700
     44 H15          5.0200    -2.3180    -6.4480 h1         1 PF2       0.062700
     45 H15A         6.2650    -2.1960    -5.1920 h1         1 PF2       0.062700
     46 H14          4.4720     0.0630    -6.1520 h1         1 PF2       0.045200
     47 H14A         4.3240    -0.7990    -4.6110 h1         1 PF2       0.045200
     48 H24          6.5610    -4.9690    -9.2880 h4         1 PF2       0.029600
     49 H22          9.0410    -5.1610    -9.2790 ha         1 PF2       0.146000
     50 H21         10.3710    -3.3940    -8.1420 h4         1 PF2       0.029600
@<TRIPOS>BOND
     1     2     1 1
     2     4     2 1
     3     6     2 1
     4     2     3 1
     5     5     4 1
     6     4    27 1
     7     4    28 1
     8     5     7 1
     9     5    29 1
    10     5    30 1
    11     7     6 1
    12     6    31 1
    13     6    32 1
    14     8     7 1
    15    10     8 1
    16     9     8 2
    17    13    10 1
    18    11    10 1
    19    10    33 1
    20    12    11 1
    21    11    34 1
    22    14    12 1
    23    12    35 1
    24    12    36 1
    25    14    13 1
    26    13    37 1
    27    13    38 1
    28    15    14 1
    29    14    39 1
    30    16    15 1
    31    20    15 1
    32    17    16 1
    33    16    40 1
    34    16    41 1
    35    18    17 1
    36    17    42 1
    37    17    43 1
    38    21    18 1
    39    18    19 1
    40    19    20 1
    41    19    44 1
    42    19    45 1
    43    20    46 1
    44    20    47 1
    45    22    21 ar
    46    26    21 ar
    47    23    22 ar
    48    24    23 ar
    49    23    48 1
    50    24    25 ar
    51    24    49 1
    52    25    26 ar
    53    25    50 1
@<TRIPOS>SUBSTRUCTURE
     1 PF2         1 TEMP              0 ****  ****    0 ROOT
