@<TRIPOS>MOLECULE
molecule
   50    53     1     0     0
SMALL
bcc


@<TRIPOS>ATOM
      1 S1           0.0000     0.0000     0.0000 ss         1 PF3      -0.143800
      2 C1           1.7830     0.0000     0.0000 cc         1 PF3      -0.051700
      3 C2           2.0770     0.0000     1.3490 cd         1 PF3      -0.111000
      4 C3           1.0110     0.0070     2.2300 cd         1 PF3      -0.107000
      5 C4          -0.2680     0.0050     1.7110 cc         1 PF3      -0.071100
      6 C5           1.2360     0.0120     3.6950 ca         1 PF3      -0.001000
      7 C6           0.4280    -0.7600     4.5270 ca         1 PF3      -0.121000
      8 C7           0.6370    -0.7550     5.8890 ca         1 PF3      -0.111000
      9 C8           1.6570     0.0230     6.4350 cp         1 PF3      -0.061000
     10 C9           2.4660     0.7940     5.6030 ca         1 PF3      -0.111000
     11 C10          2.2600     0.7860     4.2410 ca         1 PF3      -0.121000
     12 C11          1.8810     0.0280     7.9010 cp         1 PF3       0.009000
     13 C12          3.1760     0.0350     8.4290 ca         1 PF3      -0.247300
     14 C13          3.3390     0.0420     9.7990 ca         1 PF3       0.416700
     15 N1           2.2960     0.0390    10.6050 nb         1 PF3      -0.700000
     16 C14          1.0590     0.0320    10.1490 ca         1 PF3       0.416700
     17 C15          0.8050     0.0310     8.7920 ca         1 PF3      -0.247300
     18 C16          2.7020    -0.0030    -1.1420 c          1 PF3       0.701700
     19 O1           3.9040    -0.0040    -0.9550 o          1 PF3      -0.591100
     20 N2           2.2160    -0.0090    -2.3990 ns         1 PF3      -0.566900
     21 C17          3.1300     0.1000    -3.5390 c3         1 PF3       0.167000
     22 C18          3.4210     1.5750    -3.8200 c3         1 PF3      -0.195400
     23 C19          4.4730     1.6840    -4.8930 c          1 PF3       0.896600
     24 O2           5.0180     0.6890    -5.3080 o          1 PF3      -0.848800
     25 O3           4.8040     2.8860    -5.3900 o          1 PF3      -0.848800
     26 C20          2.4960    -0.5260    -4.7530 ca         1 PF3      -0.052300
     27 C21          3.1130    -1.5920    -5.3830 ca         1 PF3      -0.098000
     28 C22          2.5310    -2.1670    -6.4970 ca         1 PF3      -0.141000
     29 C23          1.3330    -1.6770    -6.9820 ca         1 PF3      -0.141000
     30 C24          0.7160    -0.6130    -6.3520 ca         1 PF3      -0.141000
     31 C25          1.2960    -0.0410    -5.2350 ca         1 PF3      -0.098000
     32 H2           3.1010     0.0000     1.7030 ha         1 PF3       0.170000
     33 H4          -1.2110     0.0080     2.2440 h4         1 PF3       0.184000
     34 H6          -0.3640    -1.3650     4.1030 ha         1 PF3       0.140500
     35 H7           0.0080    -1.3560     6.5360 ha         1 PF3       0.132000
     36 H9           3.2600     1.3970     6.0260 ha         1 PF3       0.132000
     37 H10          2.8890     1.3850     3.5950 ha         1 PF3       0.140500
     38 H12          4.0380     0.0380     7.7730 ha         1 PF3       0.142500
     39 H13          4.3390     0.0470    10.2170 h4         1 PF3       0.020100
     40 H14          0.2310     0.0320    10.8480 h4         1 PF3       0.020100
     41 H15         -0.2140     0.0250     8.4240 ha         1 PF3       0.142500
     42 HA           1.2320    -0.0990    -2.5550 hn         1 PF3       0.301500
     43 H17          4.0560    -0.4130    -3.3100 h1         1 PF3       0.103700
     44 H181         3.7790     2.0520    -2.9150 hc         1 PF3       0.042200
     45 H182         2.5140     2.0660    -4.1530 hc         1 PF3       0.042200
     46 H21          4.0520    -1.9750    -5.0030 ha         1 PF3       0.134000
     47 H22          3.0150    -3.0020    -6.9900 ha         1 PF3       0.113500
     48 H23          0.8780    -2.1270    -7.8560 ha         1 PF3       0.109000
     49 H24         -0.2250    -0.2310    -6.7310 ha         1 PF3       0.113500
     50 H25          0.8120     0.7930    -4.7420 ha         1 PF3       0.134000
@<TRIPOS>BOND
     1     1     2 1
     2     1     5 1
     3     2     3 2
     4     2    18 1
     5     3     4 1
     6     3    32 1
     7     4     5 2
     8     4     6 1
     9     5    33 1
    10     6     7 ar
    11     6    11 ar
    12     7     8 ar
    13     7    34 1
    14     8     9 ar
    15     8    35 1
    16     9    10 ar
    17     9    12 1
    18    10    11 ar
    19    10    36 1
    20    11    37 1
    21    12    13 ar
    22    12    17 ar
    23    13    14 ar
    24    13    38 1
    25    14    15 ar
    26    14    39 1
    27    15    16 ar
    28    16    17 ar
    29    16    40 1
    30    17    41 1
    31    18    19 2
    32    18    20 1
    33    20    21 1
    34    20    42 1
    35    21    22 1
    36    21    26 1
    37    21    43 1
    38    22    23 1
    39    22    44 1
    40    22    45 1
    41    23    24 1
    42    23    25 1
    43    26    27 ar
    44    26    31 ar
    45    27    28 ar
    46    27    46 1
    47    28    29 ar
    48    28    47 1
    49    29    30 ar
    50    29    48 1
    51    30    31 ar
    52    30    49 1
    53    31    50 1
@<TRIPOS>SUBSTRUCTURE
     1 PF3         1 TEMP              0 ****  ****    0 ROOT
