@<TRIPOS>MOLECULE
molecule
   44    47     1     0     0
SMALL
bcc


@<TRIPOS>ATOM
      1 C7           0.0000     0.0000     0.0000 ca         1 PF4      -0.072500
      2 C9           2.6610    -0.4090    -3.3510 cc         1 PF4       0.490000
      3 C13          1.3960    -0.0110     2.4010 ca         1 PF4      -0.195000
      4 C20          5.5900     2.9690     1.2170 ca         1 PF4       0.147100
      5 C8           2.0900     0.0000     1.2090 ca         1 PF4      -0.072500
      6 C18          1.6060    -1.7150    -5.2260 cd         1 PF4      -0.114000
      7 C16          4.2140     3.1400     1.1310 ca         1 PF4      -0.191500
      8 C26          7.7210     3.4890     2.1340 c3         1 PF4       0.127700
      9 O24          6.3100     3.7150     2.0960 os         1 PF4      -0.326900
     10 C15          6.2310     2.0360     0.4130 ca         1 PF4      -0.191500
     11 C10          5.5040     1.2780    -0.4800 ca         1 PF4      -0.075000
     12 C11          3.4790     2.3870     0.2400 ca         1 PF4      -0.075000
     13 C5           4.1200     1.4500    -0.5750 ca         1 PF4      -0.062000
     14 C2           3.3380     0.6420    -1.5290 cc         1 PF4      -0.159600
     15 N6           3.6600     0.3740    -2.8430 na         1 PF4      -0.286900
     16 C14          2.6020    -0.9340    -4.7230 cc         1 PF4      -0.067600
     17 S19          3.8070    -0.6520    -5.9730 ss         1 PF4      -0.172800
     18 C23          2.8900    -1.6150    -7.1220 cc         1 PF4      -0.063100
     19 C22          1.7810    -2.0840    -6.5420 cd         1 PF4      -0.155000
     20 N4           1.7630    -0.6230    -2.4130 nd         1 PF4      -0.671000
     21 C1           2.1370    -0.0000    -1.2830 cd         1 PF4       0.394800
     22 C3           1.3950     0.0000     0.0000 ca         1 PF4      -0.147500
     23 C12         -0.6870    -0.0010     1.1950 ca         1 PF4      -0.195000
     24 C17          0.0070    -0.0060     2.3970 ca         1 PF4       0.141100
     25 O21         -0.6740    -0.0160     3.5740 os         1 PF4      -0.329900
     26 C25         -2.1000    -0.0090     3.4970 c3         1 PF4       0.128700
     27 H7          -0.5430     0.0020    -0.9380 ha         1 PF4       0.145500
     28 H13          1.9350    -0.0130     3.3410 ha         1 PF4       0.139500
     29 H8           3.1730    -0.0020     1.2120 ha         1 PF4       0.145500
     30 H18          0.7510    -2.0250    -4.6390 ha         1 PF4       0.171000
     31 H16          3.7180     3.8660     1.7640 ha         1 PF4       0.144000
     32 H26          8.1460     3.6930     1.1590 h1         1 PF4       0.042367
     33 H26A         8.1720     4.1450     2.8690 h1         1 PF4       0.042367
     34 H26B         7.9150     2.4580     2.4040 h1         1 PF4       0.042367
     35 H15          7.3040     1.9050     0.4860 ha         1 PF4       0.144000
     36 H10          6.0050     0.5520    -1.1090 ha         1 PF4       0.143000
     37 H11          2.4060     2.5220     0.1720 ha         1 PF4       0.143000
     38 H23          3.1830    -1.8050    -8.1470 h4         1 PF4       0.173000
     39 H22          1.0680    -2.7050    -7.0700 ha         1 PF4       0.153000
     40 H12         -1.7700     0.0010     1.1960 ha         1 PF4       0.139500
     41 H25         -2.5160    -0.0130     4.4980 h1         1 PF4       0.040700
     42 H25A        -2.4300     0.8800     2.9730 h1         1 PF4       0.040700
     43 H25B        -2.4370    -0.8890     2.9630 h1         1 PF4       0.040700
     44 HN6          4.3930     0.8080    -3.3690 hn         1 PF4       0.305700
@<TRIPOS>BOND
     1    22     1 ar
     2     1    23 ar
     3     1    27 1
     4    16     2 1
     5     2    15 1
     6     2    20 2
     7     5     3 ar
     8     3    24 ar
     9     3    28 1
    10    10     4 ar
    11     4     9 1
    12     4     7 ar
    13    22     5 ar
    14     5    29 1
    15    19     6 1
    16     6    16 2
    17     6    30 1
    18    12     7 ar
    19     7    31 1
    20     8     9 1
    21     8    32 1
    22     8    33 1
    23     8    34 1
    24    11    10 ar
    25    10    35 1
    26    11    13 ar
    27    11    36 1
    28    13    12 ar
    29    12    37 1
    30    14    13 1
    31    15    14 1
    32    14    21 2
    33    17    16 1
    34    18    17 1
    35    19    18 2
    36    18    38 1
    37    19    39 1
    38    20    21 1
    39    21    22 1
    40    23    24 ar
    41    23    40 1
    42    24    25 1
    43    25    26 1
    44    26    41 1
    45    26    42 1
    46    26    43 1
    47    15    44 1
@<TRIPOS>SUBSTRUCTURE
     1 PF4         1 TEMP              0 ****  ****    0 ROOT
