@<TRIPOS>MOLECULE
PF4
   44    47     1     0     0
SMALL
bcc


@<TRIPOS>ATOM
      1 C7         -0.1400    0.0460   -0.0260 ca        1 PF4     -0.078000
      2 C9          2.5830   -0.4070   -3.3000 cc        1 PF4      0.492000
      3 C13         1.1630   -0.1080    2.4470 ca        1 PF4     -0.186000
      4 C20         5.8130    2.9640    1.0810 ca        1 PF4      0.131100
      5 C8          1.8990   -0.0750    1.2710 ca        1 PF4     -0.078000
      6 C18         1.7250   -1.8600   -5.1510 cd        1 PF4     -0.108000
      7 C16         4.4170    3.1580    1.1050 ca        1 PF4     -0.181000
      8 C26         7.9380    3.6010    1.9450 c3        1 PF4      0.112700
      9 O24         6.5270    3.7890    1.9260 os        1 PF4     -0.323900
     10 C15         6.3830    1.9960    0.2470 ca        1 PF4     -0.181000
     11 C10         5.5560    1.2250   -0.5690 ca        1 PF4     -0.083000
     12 C11         3.6090    2.3830    0.2870 ca        1 PF4     -0.083000
     13 C5          4.1680    1.4090   -0.5590 ca        1 PF4     -0.057000
     14 C2          3.3100    0.6210   -1.4220 cc        1 PF4     -0.137600
     15 N6          3.6440    0.3350   -2.7510 na        1 PF4     -0.311900
     16 C14         2.5780   -0.8860   -4.6600 cc        1 PF4     -0.153600
     17 S19         3.6060   -0.3120   -5.8730 ss        1 PF4     -0.011800
     18 C23         2.9680   -1.3230   -7.0400 cc        1 PF4     -0.150100
     19 C22         1.9570   -2.1110   -6.5390 cd        1 PF4     -0.158000
     20 N4          1.6030   -0.6050   -2.3750 nd        1 PF4     -0.646000
     21 C1          2.0380    0.0230   -1.2030 cd        1 PF4      0.379800
     22 C3          1.2590    0.0070    0.0230 ca        1 PF4     -0.146500
     23 C12        -0.8950    0.0160    1.1450 ca        1 PF4     -0.186000
     24 C17        -0.2430   -0.0610    2.3810 ca        1 PF4      0.125100
     25 O21        -0.8830   -0.0940    3.6050 os        1 PF4     -0.327900
     26 C25        -2.3040   -0.0860    3.5690 c3        1 PF4      0.113700
     27 H7         -0.6550    0.0990   -0.9980 ha        1 PF4      0.145500
     28 H13         1.6570   -0.1730    3.4260 ha        1 PF4      0.143000
     29 H8          2.9990   -0.1120    1.3140 ha        1 PF4      0.145500
     30 H18         0.9660   -2.3770   -4.5580 ha        1 PF4      0.175000
     31 H16         3.9890    3.9220    1.7700 ha        1 PF4      0.147000
     32 H26         8.2900    4.3560    2.6930 h1        1 PF4      0.045700
     33 H26A        8.3760    3.8090    0.9390 h1        1 PF4      0.045700
     34 H26B        8.1940    2.5670    2.2780 h1        1 PF4      0.045700
     35 H15         7.4690    1.8330    0.2270 ha        1 PF4      0.147000
     36 H10         6.0080    0.4560   -1.2130 ha        1 PF4      0.142500
     37 H11         2.5150    2.5200    0.3030 ha        1 PF4      0.142500
     38 H23         3.3310   -1.3310   -8.0660 h4        1 PF4      0.174000
     39 H22         1.3870   -2.8460   -7.1130 ha        1 PF4      0.158000
     40 H12        -1.9910    0.0500    1.0840 ha        1 PF4      0.143000
     41 H25        -2.6920   -0.9760    3.0160 h1        1 PF4      0.044033
     42 H25A       -2.5930   -0.1360    4.6500 h1        1 PF4      0.044033
     43 H25B       -2.6820    0.8580    3.1040 h1        1 PF4      0.044033
     44 HN6         4.4680    0.6190   -3.2100 hn        1 PF4      0.302700
@<TRIPOS>BOND
     1    1   22 ar  
     2    1   23 ar  
     3    1   27 1   
     4    2   15 1   
     5    2   16 1   
     6    2   20 2   
     7    3    5 ar  
     8    3   24 ar  
     9    3   28 1   
    10    4    7 ar  
    11    4    9 1   
    12    4   10 ar  
    13    5   22 ar  
    14    5   29 1   
    15    6   16 2   
    16    6   19 1   
    17    6   30 1   
    18    7   12 ar  
    19    7   31 1   
    20    8    9 1   
    21    8   32 1   
    22    8   33 1   
    23    8   34 1   
    24   10   11 ar  
    25   10   35 1   
    26   11   13 ar  
    27   11   36 1   
    28   12   13 ar  
    29   12   37 1   
    30   13   14 1   
    31   14   15 1   
    32   14   21 2   
    33   15   44 1   
    34   16   17 1   
    35   17   18 1   
    36   18   19 2   
    37   18   38 1   
    38   19   39 1   
    39   20   21 1   
    40   21   22 1   
    41   23   24 ar  
    42   23   40 1   
    43   24   25 1   
    44   25   26 1   
    45   26   41 1   
    46   26   42 1   
    47   26   43 1   
@<TRIPOS>SUBSTRUCTURE
     1 PF4         1 TEMP              0 ****  ****    0 ROOT
