@<TRIPOS>MOLECULE
PF6
   50    54     1     0     0
SMALL
bcc


@<TRIPOS>ATOM
      1 C7          0.4430    0.3670    0.4990 ca        1 PF6     -0.078000
      2 C6         -3.8880    0.8760    1.1880 cc        1 PF6     -0.139300
      3 C13        -2.9250    4.3790    0.7300 ca        1 PF6     -0.243800
      4 C20         4.5930   -0.0340    2.8560 c3        1 PF6      0.075100
      5 C21         6.0600   -0.1150    2.5000 ca        1 PF6      0.417600
      6 C8          0.4040    0.2120    2.9140 ca        1 PF6     -0.078000
      7 C16        -3.7380    5.5160    0.5910 ca        1 PF6      0.391700
      8 C26         8.7520   -0.1710    1.8710 ca        1 PF6     -0.144300
      9 C29        10.3850   -1.8980    3.3590 ca        1 PF6     -0.124000
     10 C30        10.9420   -1.0960    2.3340 ca        1 PF6     -0.125000
     11 C28        10.1420   -0.2510    1.6050 ca        1 PF6     -0.112000
     12 C25         7.8860    0.6900    1.1380 ca        1 PF6     -0.085000
     13 C23         6.5510    0.7260    1.4460 ca        1 PF6     -0.223300
     14 C24         8.1800   -0.9760    2.9040 ca        1 PF6      0.397600
     15 C27         9.0440   -1.8470    3.6450 ca        1 PF6     -0.164300
     16 N22         6.8320   -0.9390    3.2020 nb        1 PF6     -0.658000
     17 O18         3.8870    0.2360    1.6370 os        1 PF6     -0.332900
     18 C15         2.5090    0.2380    1.7390 ca        1 PF6      0.131100
     19 C12         1.7970    0.1770    2.9430 ca        1 PF6     -0.182500
     20 C11         1.8310    0.3300    0.5090 ca        1 PF6     -0.182500
     21 C3         -0.2840    0.3150    1.6980 ca        1 PF6     -0.147500
     22 C1         -1.7370    0.3590    1.6750 cd        1 PF6      0.363800
     23 C2         -2.5700    1.2060    0.8310 cd        1 PF6     -0.239600
     24 N9         -3.7940   -0.0980    2.1820 na        1 PF6     -0.013600
     25 N4         -2.5360   -0.4120    2.4770 nc        1 PF6     -0.507800
     26 C5         -2.1140    2.1760   -0.1730 c3        1 PF6      0.035200
     27 C10        -2.9760    3.3890   -0.2610 ca        1 PF6     -0.040300
     28 N19        -4.5710    5.7150   -0.4490 nb        1 PF6     -0.666000
     29 C17        -4.6080    4.7590   -1.3970 ca        1 PF6      0.391700
     30 C14        -3.8340    3.5850   -1.3490 ca        1 PF6     -0.243800
     31 H7         -0.0930    0.4260   -0.4610 ha        1 PF6      0.143000
     32 H6         -4.8430    1.2560    0.8270 h4        1 PF6      0.182000
     33 H13        -2.2630    4.2680    1.6000 ha        1 PF6      0.146000
     34 H20         4.4350    0.8170    3.5720 h1        1 PF6      0.064700
     35 H20A        4.2170   -0.9910    3.3060 h1        1 PF6      0.064700
     36 H8         -0.1580    0.1580    3.8600 ha        1 PF6      0.143000
     37 H16        -3.7240    6.3150    1.3540 h4        1 PF6      0.021600
     38 H29        11.0470   -2.5670    3.9280 ha        1 PF6      0.136000
     39 H30        12.0210   -1.1620    2.1310 ha        1 PF6      0.135000
     40 H28        10.5630    0.3770    0.8050 ha        1 PF6      0.135000
     41 H25         8.3060    1.3140    0.3360 ha        1 PF6      0.140000
     42 H23         5.8410    1.3680    0.9040 ha        1 PF6      0.160000
     43 H27         8.6130   -2.4730    4.4430 ha        1 PF6      0.150000
     44 H12         2.3150    0.1000    3.9080 ha        1 PF6      0.145500
     45 H11         2.4080    0.3670   -0.4260 ha        1 PF6      0.145500
     46 H5         -1.0620    2.4950    0.0780 hc        1 PF6      0.063700
     47 H5A        -2.0740    1.6700   -1.1790 hc        1 PF6      0.063700
     48 H17        -5.2950    4.9460   -2.2410 h4        1 PF6      0.021600
     49 H14        -3.9040    2.8430   -2.1550 ha        1 PF6      0.146000
     50 HN9        -4.5440   -0.5530    2.6470 hn        1 PF6      0.323700
@<TRIPOS>BOND
     1    1   20 ar  
     2    1   21 ar  
     3    1   31 1   
     4    2   23 2   
     5    2   24 1   
     6    2   32 1   
     7    3    7 ar  
     8    3   27 ar  
     9    3   33 1   
    10    4    5 1   
    11    4   17 1   
    12    4   34 1   
    13    4   35 1   
    14    5   13 ar  
    15    5   16 ar  
    16    6   19 ar  
    17    6   21 ar  
    18    6   36 1   
    19    7   28 ar  
    20    7   37 1   
    21    8   11 ar  
    22    8   12 ar  
    23    8   14 ar  
    24    9   10 ar  
    25    9   15 ar  
    26    9   38 1   
    27   10   11 ar  
    28   10   39 1   
    29   11   40 1   
    30   12   13 ar  
    31   12   41 1   
    32   13   42 1   
    33   14   15 ar  
    34   14   16 ar  
    35   15   43 1   
    36   17   18 1   
    37   18   19 ar  
    38   18   20 ar  
    39   19   44 1   
    40   20   45 1   
    41   21   22 1   
    42   22   23 1   
    43   22   25 2   
    44   23   26 1   
    45   24   25 1   
    46   24   50 1   
    47   26   27 1   
    48   26   46 1   
    49   26   47 1   
    50   27   30 ar  
    51   28   29 ar  
    52   29   30 ar  
    53   29   48 1   
    54   30   49 1   
@<TRIPOS>SUBSTRUCTURE
     1 PF6         1 TEMP              0 ****  ****    0 ROOT
