@<TRIPOS>MOLECULE
molecule
   50    54     1     0     0
SMALL
bcc


@<TRIPOS>ATOM
      1 C7           0.0000     0.0000     0.0000 ca         1 PF6      -0.070500
      2 C6          -4.2900     0.5100     0.6900 cc         1 PF6      -0.107300
      3 C13         -0.8790     3.3620     0.3360 ca         1 PF6      -0.250300
      4 C20          4.0860     0.0020     2.4700 c3         1 PF6       0.090100
      5 C21          5.5790     0.0020     2.2700 ca         1 PF6       0.435600
      6 C8           0.0060     0.0060     2.4130 ca         1 PF6      -0.070500
      7 C16         -0.5930     4.5760     0.9310 ca         1 PF6       0.419200
      8 C26          8.2800     0.0030     1.9010 ca         1 PF6      -0.154300
      9 C29          9.8830     0.0050     4.1610 ca         1 PF6      -0.119000
     10 C30         10.4560    -0.0000     2.8910 ca         1 PF6      -0.126000
     11 C28          9.6780     0.0040     1.7740 ca         1 PF6      -0.110000
     12 C25          7.4390     0.0030     0.7720 ca         1 PF6      -0.080000
     13 C23          6.0890     0.0020     0.9730 ca         1 PF6      -0.232300
     14 C24          7.6940     0.0090     3.1920 ca         1 PF6       0.423600
     15 C27          8.5310     0.0100     4.3210 ca         1 PF6      -0.164300
     16 N22          6.3640     0.0070     3.3200 nb         1 PF6      -0.686000
     17 O18          3.4340     0.0010     1.1980 os         1 PF6      -0.335900
     18 C15          2.0750     0.0000     1.2010 ca         1 PF6       0.148100
     19 C12          1.3850     0.0010     2.4060 ca         1 PF6      -0.194500
     20 C11          1.3800     0.0000     0.0000 ca         1 PF6      -0.194500
     21 C3          -0.6950     0.0060     1.2070 ca         1 PF6      -0.149500
     22 C1          -2.1790     0.0120     1.2100 cd         1 PF6       0.407800
     23 C2          -3.0060     0.7910     0.3790 cd         1 PF6      -0.292600
     24 N9          -4.2870    -0.4060     1.6840 na         1 PF6      -0.042600
     25 N4          -2.9550    -0.7070     1.9940 nc         1 PF6      -0.500800
     26 C5          -2.5420     1.7650    -0.6740 c3         1 PF6       0.043200
     27 C10         -2.1890     3.0770    -0.0230 ca         1 PF6      -0.040300
     28 N19         -1.5480     5.4550     1.1630 nb         1 PF6      -0.695000
     29 C17         -2.8040     5.2160     0.8410 ca         1 PF6       0.419200
     30 C14         -3.1640     4.0280     0.2320 ca         1 PF6      -0.250300
     31 H7          -0.5420    -0.0000    -0.9380 ha         1 PF6       0.145000
     32 H6          -5.1680     0.9450     0.2280 h4         1 PF6       0.170000
     33 H13         -0.0900     2.6430     0.1480 ha         1 PF6       0.138000
     34 H20          3.7960    -0.8830     3.0250 h1         1 PF6       0.061700
     35 H20A         3.7960     0.8860     3.0240 h1         1 PF6       0.061700
     36 H8          -0.5330     0.0090     3.3530 ha         1 PF6       0.145000
     37 H16          0.4280     4.8070     1.2120 h4         1 PF6       0.021100
     38 H29         10.5230     0.0020     5.0350 ha         1 PF6       0.134000
     39 H30         11.5340    -0.0030     2.7910 ha         1 PF6       0.131000
     40 H28         10.1350    -0.0010     0.7920 ha         1 PF6       0.134000
     41 H25          7.8530     0.0030    -0.2300 ha         1 PF6       0.141000
     42 H23          5.4150    -0.0550     0.1260 ha         1 PF6       0.157000
     43 H27          8.1020     0.0140     5.3160 ha         1 PF6       0.148000
     44 H12          1.9300     0.0020     3.3420 ha         1 PF6       0.143000
     45 H11          1.9210    -0.0050    -0.9380 ha         1 PF6       0.143000
     46 H5          -1.6700     1.3650    -1.1770 hc         1 PF6       0.055700
     47 H5A         -3.3350     1.9220    -1.3950 hc         1 PF6       0.055700
     48 H17         -3.5610     5.9640     1.0450 h4         1 PF6       0.021100
     49 H14         -4.1970     3.8380    -0.0330 ha         1 PF6       0.138000
     50 HN9         -5.0960    -0.8030     2.1190 hn         1 PF6       0.331700
@<TRIPOS>BOND
     1    20     1 ar
     2    21     1 ar
     3     1    31 1
     4    24     2 1
     5    23     2 2
     6     2    32 1
     7    27     3 ar
     8     3     7 ar
     9     3    33 1
    10     5     4 1
    11     4    17 1
    12     4    34 1
    13     4    35 1
    14    16     5 ar
    15    13     5 ar
    16    19     6 ar
    17     6    21 ar
    18     6    36 1
    19     7    28 ar
    20     7    37 1
    21    11     8 ar
    22     8    14 ar
    23     8    12 ar
    24    10     9 ar
    25     9    15 ar
    26     9    38 1
    27    10    11 ar
    28    10    39 1
    29    11    40 1
    30    12    13 ar
    31    12    41 1
    32    13    42 1
    33    15    14 ar
    34    14    16 ar
    35    15    43 1
    36    17    18 1
    37    19    18 ar
    38    18    20 ar
    39    19    44 1
    40    20    45 1
    41    21    22 1
    42    25    22 2
    43    22    23 1
    44    23    26 1
    45    25    24 1
    46    26    27 1
    47    26    46 1
    48    26    47 1
    49    27    30 ar
    50    29    28 ar
    51    30    29 ar
    52    29    48 1
    53    30    49 1
    54    24    50 1
@<TRIPOS>SUBSTRUCTURE
     1 PF6         1 TEMP              0 ****  ****    0 ROOT
