@<TRIPOS>MOLECULE
molecule
   37    39     1     0     0
SMALL
bcc


@<TRIPOS>ATOM
      1 O19          0.0000     0.0000     0.0000 o          1 PF7      -0.870800
      2 C18          1.2440     0.0000     0.0000 c          1 PF7       0.964600
      3 N15          1.9310     0.0000     1.1460 n          1 PF7      -0.510800
      4 C16          1.2970     0.0070     2.4740 c3         1 PF7       0.126000
      5 C17          1.8290     1.2810     3.1530 c3         1 PF7      -0.097900
      6 C12          3.3580     1.3130     3.2220 c3         1 PF7      -0.062700
      7 C13          3.9020     1.2380     1.8040 c3         1 PF7      -0.097900
      8 C14          3.3990    -0.0260     1.1110 c3         1 PF7       0.126000
      9 C11          3.8450     2.6030     3.8850 c3         1 PF7      -0.035100
     10 C9           3.9380     2.4300     5.3820 ca         1 PF7      -0.184600
     11 C10          2.8780     2.7830     6.2150 ca         1 PF7      -0.075000
     12 C3           2.9990     2.6080     7.5980 ca         1 PF7      -0.132300
     13 C4           1.9410     2.9480     8.4390 ca         1 PF7      -0.108000
     14 C5           2.0620     2.7680     9.8150 ca         1 PF7      -0.153000
     15 C6           3.2440     2.2420    10.3680 ca         1 PF7      -0.138000
     16 C1           4.3070     1.9030     9.5350 ca         1 PF7      -0.165300
     17 C2           4.1840     2.0910     8.1520 ca         1 PF7       0.404600
     18 N7           5.2450     1.7540     7.3150 nb         1 PF7      -0.683000
     19 C8           5.1080     1.9160     5.9300 ca         1 PF7       0.417200
     20 OXT          1.6440    -0.0490    -1.2730 o          1 PF7      -0.870800
     21 H161         0.2190     0.0560     2.3750 h1         1 PF7       0.043200
     22 H162         1.5920    -0.8700     3.0370 h1         1 PF7       0.043200
     23 H141         3.7630    -0.9010     1.6370 h1         1 PF7       0.043200
     24 H142         3.7410    -0.0410     0.0830 h1         1 PF7       0.043200
     25 H171         1.4330     1.3310     4.1600 hc         1 PF7       0.032950
     26 H172         1.4870     2.1440     2.5930 hc         1 PF7       0.032950
     27 H12          3.7090     0.4570     3.7860 hc         1 PF7       0.043700
     28 H131         4.9850     1.2210     1.8370 hc         1 PF7       0.032950
     29 H132         3.5690     2.1060     1.2480 hc         1 PF7       0.032950
     30 H111         4.8230     2.8580     3.4940 hc         1 PF7       0.048700
     31 H112         3.1510     3.4030     3.6610 hc         1 PF7       0.048700
     32 H10          2.0210     3.3070     5.8090 ha         1 PF7       0.145000
     33 H8           5.9270     1.6390     5.2770 h4         1 PF7       0.029100
     34 H4           0.9800     3.3760     8.1820 ha         1 PF7       0.134000
     35 H5           1.2560     3.0220    10.4930 ha         1 PF7       0.124000
     36 H6           3.3160     2.1050    11.4400 ha         1 PF7       0.126000
     37 H1           5.1830     1.5080    10.0360 ha         1 PF7       0.141000
@<TRIPOS>BOND
     1     1     2 1
     2     2     3 1
     3     2    20 1
     4     3     4 1
     5     3     8 1
     6     4     5 1
     7     5     6 1
     8     6     7 1
     9     6     9 1
    10     7     8 1
    11     9    10 1
    12    10    11 ar
    13    10    19 ar
    14    11    12 ar
    15    12    13 ar
    16    12    17 ar
    17    13    14 ar
    18    14    15 ar
    19    15    16 ar
    20    16    17 ar
    21    17    18 ar
    22    18    19 ar
    23     4    21 1
    24     4    22 1
    25     8    23 1
    26     8    24 1
    27     5    25 1
    28     5    26 1
    29     6    27 1
    30     7    28 1
    31     7    29 1
    32     9    30 1
    33     9    31 1
    34    11    32 1
    35    19    33 1
    36    13    34 1
    37    14    35 1
    38    15    36 1
    39    16    37 1
@<TRIPOS>SUBSTRUCTURE
     1 PF7         1 TEMP              0 ****  ****    0 ROOT
