@<TRIPOS>MOLECULE
molecule
   47    51     1     0     0
SMALL
bcc


@<TRIPOS>ATOM
      1 C7           0.0000     0.0000     0.0000 ca         1 PF8      -0.064000
      2 C6          -4.3060    -0.3920     1.7990 cc         1 PF8      -0.092300
      3 C13          1.3850    -0.0100     2.4050 ca         1 PF8      -0.195500
      4 C20          5.5730    -0.0040     0.1160 ca         1 PF8       0.435600
      5 C8           0.0070    -0.0040     2.4130 ca         1 PF8      -0.064000
      6 C16          2.0750     0.0000     1.2010 ca         1 PF8       0.152100
      7 C19          4.0790     0.0050    -0.0780 c3         1 PF8       0.090100
      8 C26          8.5170     0.0050    -1.9520 ca         1 PF8      -0.164300
      9 C29         10.4480    -0.0170    -0.5300 ca         1 PF8      -0.126000
     10 C28          9.8680    -0.0010    -1.7970 ca         1 PF8      -0.119000
     11 C23          7.6850    -0.0030    -0.8180 ca         1 PF8       0.423600
     12 N21          6.3530     0.0040    -0.9390 nb         1 PF8      -0.686000
     13 C27          9.6750    -0.0260     0.5910 ca         1 PF8      -0.110000
     14 C25          8.2760    -0.0190     0.4710 ca         1 PF8      -0.154300
     15 C24          7.4420    -0.0220     1.6040 ca         1 PF8      -0.080000
     16 C22          6.0900    -0.0140     1.4090 ca         1 PF8      -0.232300
     17 O18          3.4340    -0.0060     1.1970 os         1 PF8      -0.334900
     18 C12          1.3790     0.0000     0.0000 ca         1 PF8      -0.195500
     19 C3          -0.6950     0.0000     1.2080 ca         1 PF8      -0.161500
     20 C1          -2.1780     0.0070     1.2120 cd         1 PF8       0.421800
     21 C2          -3.0140    -0.6480     2.1520 cd         1 PF8      -0.265300
     22 N9          -4.2870     0.3830     0.6960 na         1 PF8      -0.038600
     23 N4          -2.9520     0.6260     0.3480 nc         1 PF8      -0.504800
     24 C5          -2.5650    -1.4630     3.3060 ca         1 PF8       0.036000
     25 C11         -1.6130    -2.4740     3.1450 ca         1 PF8      -0.250300
     26 C15         -1.2240    -3.2080     4.2460 ca         1 PF8       0.417700
     27 N17         -1.7360    -2.9660     5.4380 nb         1 PF8      -0.697000
     28 C14         -2.6370    -2.0210     5.6330 ca         1 PF8       0.417700
     29 C10         -3.0780    -1.2370     4.5870 ca         1 PF8      -0.250300
     30 H7          -0.5420     0.0020    -0.9380 ha         1 PF8       0.147000
     31 H6          -5.1900    -0.7500     2.3120 h4         1 PF8       0.175000
     32 H13          1.9310    -0.0130     3.3410 ha         1 PF8       0.143000
     33 H8          -0.5310    -0.0080     3.3530 ha         1 PF8       0.147000
     34 H19          3.7910     0.8970    -0.6210 h1         1 PF8       0.061200
     35 H19A         3.7820    -0.8720    -0.6410 h1         1 PF8       0.061200
     36 H26          8.0830     0.0180    -2.9440 ha         1 PF8       0.148000
     37 H29         11.5270    -0.0220    -0.4360 ha         1 PF8       0.131000
     38 H28         10.5040     0.0060    -2.6740 ha         1 PF8       0.133000
     39 H27         10.1370    -0.0390     1.5710 ha         1 PF8       0.134000
     40 H24          7.8610    -0.0290     2.6030 ha         1 PF8       0.142000
     41 H22          5.4200     0.0160     2.2600 ha         1 PF8       0.158000
     42 H12          1.9200     0.0040    -0.9390 ha         1 PF8       0.143000
     43 H11         -1.1880    -2.6790     2.1700 ha         1 PF8       0.143500
     44 H15         -0.4870    -3.9930     4.1310 h4         1 PF8       0.023100
     45 H14         -3.0300    -1.8550     6.6290 h4         1 PF8       0.023100
     46 H10         -3.8170    -0.4640     4.7550 ha         1 PF8       0.143500
     47 HN9         -5.0910     0.7300     0.2110 hn         1 PF8       0.333700
@<TRIPOS>BOND
     1    18     1 ar
     2     1    19 ar
     3     1    30 1
     4    21     2 2
     5     2    22 1
     6     2    31 1
     7     6     3 ar
     8     3     5 ar
     9     3    32 1
    10    16     4 ar
    11    12     4 ar
    12     4     7 1
    13     5    19 ar
    14     5    33 1
    15    17     6 1
    16     6    18 ar
    17     7    17 1
    18     7    34 1
    19     7    35 1
    20    10     8 ar
    21     8    11 ar
    22     8    36 1
    23     9    13 ar
    24     9    10 ar
    25     9    37 1
    26    10    38 1
    27    14    11 ar
    28    11    12 ar
    29    13    14 ar
    30    13    39 1
    31    14    15 ar
    32    15    16 ar
    33    15    40 1
    34    16    41 1
    35    18    42 1
    36    19    20 1
    37    20    21 1
    38    20    23 2
    39    24    21 1
    40    23    22 1
    41    25    24 ar
    42    24    29 ar
    43    26    25 ar
    44    25    43 1
    45    26    27 ar
    46    26    44 1
    47    27    28 ar
    48    28    29 ar
    49    28    45 1
    50    29    46 1
    51    22    47 1
@<TRIPOS>SUBSTRUCTURE
     1 PF8         1 TEMP              0 ****  ****    0 ROOT
