@<TRIPOS>MOLECULE
PF8
   47    51     1     0     0
SMALL
bcc


@<TRIPOS>ATOM
      1 C7         -0.0660   -0.3920   -0.0880 ca        1 PF8     -0.072500
      2 C6         -4.2880   -0.1870    1.9210 cc        1 PF8     -0.128300
      3 C13         1.5020    0.0870    2.1820 ca        1 PF8     -0.185500
      4 C20         5.6150   -0.2940   -0.0550 ca        1 PF8      0.417600
      5 C8          0.1180    0.1290    2.2700 ca        1 PF8     -0.072500
      6 C16         2.1060   -0.2040    0.9430 ca        1 PF8      0.134100
      7 C19         4.1270   -0.3850   -0.3030 c3        1 PF8      0.075100
      8 C26         8.5970    0.8090   -1.8180 ca        1 PF8     -0.164300
      9 C29        10.5370    0.3770   -0.4270 ca        1 PF8     -0.125000
     10 C28         9.9540    0.8590   -1.6230 ca        1 PF8     -0.124000
     11 C23         7.7420    0.2640   -0.8040 ca        1 PF8      0.397600
     12 N21         6.3780    0.2230   -1.0130 nb        1 PF8     -0.659000
     13 C27         9.7480   -0.1510    0.5640 ca        1 PF8     -0.112000
     14 C25         8.3410   -0.2190    0.4010 ca        1 PF8     -0.144300
     15 C24         7.4840   -0.7570    1.4030 ca        1 PF8     -0.085000
     16 C22         6.1320   -0.8010    1.1840 ca        1 PF8     -0.223300
     17 O18         3.4860   -0.2440    0.9730 os        1 PF8     -0.331900
     18 C12         1.3240   -0.4440   -0.1920 ca        1 PF8     -0.185500
     19 C3         -0.6790   -0.1120    1.1390 ca        1 PF8     -0.158500
     20 C1         -2.1290   -0.0400    1.2370 cd        1 PF8      0.387800
     21 C2         -2.9800   -0.5510    2.3050 cd        1 PF8     -0.209300
     22 N9         -4.1700    0.4780    0.7050 na        1 PF8     -0.009600
     23 N4         -2.9080    0.5760    0.2930 nc        1 PF8     -0.509800
     24 C5         -2.6340   -1.2950    3.4870 ca        1 PF8      0.043000
     25 C11        -1.5570   -2.1960    3.5050 ca        1 PF8     -0.244300
     26 C15        -1.2930   -2.9130    4.6830 ca        1 PF8      0.393200
     27 N17        -2.0170   -2.7900    5.8130 nb        1 PF8     -0.668000
     28 C14        -3.0460   -1.9220    5.7880 ca        1 PF8      0.393200
     29 C10        -3.3950   -1.1580    4.6620 ca        1 PF8     -0.244300
     30 H7         -0.6810   -0.5720   -0.9830 ha        1 PF8      0.146000
     31 H6         -5.2460   -0.3630    2.4080 h4        1 PF8      0.181000
     32 H13         2.1340    0.2790    3.0610 ha        1 PF8      0.146500
     33 H8         -0.3640    0.3520    3.2350 ha        1 PF8      0.146000
     34 H19         3.7660    0.4210   -0.9960 h1        1 PF8      0.064700
     35 H19A        3.8850   -1.3970   -0.7280 h1        1 PF8      0.064700
     36 H26         8.1460    1.1850   -2.7490 ha        1 PF8      0.150000
     37 H29        11.6290    0.4330   -0.3040 ha        1 PF8      0.135000
     38 H28        10.6100    1.2780   -2.4020 ha        1 PF8      0.136000
     39 H27        10.1880   -0.5280    1.4990 ha        1 PF8      0.135000
     40 H24         7.9250   -1.1300    2.3390 ha        1 PF8      0.140000
     41 H22         5.4300   -1.1990    1.9300 ha        1 PF8      0.160000
     42 H12         1.7840   -0.6700   -1.1640 ha        1 PF8      0.146500
     43 H11        -0.9300   -2.3330    2.6120 ha        1 PF8      0.147000
     44 H15        -0.4540   -3.6310    4.7260 h4        1 PF8      0.021100
     45 H14        -3.6240   -1.8360    6.7260 h4        1 PF8      0.021100
     46 H10        -4.2430   -0.4640    4.7020 ha        1 PF8      0.147000
     47 HN9        -4.9030    0.8710    0.1620 hn        1 PF8      0.325700
@<TRIPOS>BOND
     1    1   18 ar  
     2    1   19 ar  
     3    1   30 1   
     4    2   21 2   
     5    2   22 1   
     6    2   31 1   
     7    3    5 ar  
     8    3    6 ar  
     9    3   32 1   
    10    4    7 1   
    11    4   12 ar  
    12    4   16 ar  
    13    5   19 ar  
    14    5   33 1   
    15    6   17 1   
    16    6   18 ar  
    17    7   17 1   
    18    7   34 1   
    19    7   35 1   
    20    8   10 ar  
    21    8   11 ar  
    22    8   36 1   
    23    9   10 ar  
    24    9   13 ar  
    25    9   37 1   
    26   10   38 1   
    27   11   12 ar  
    28   11   14 ar  
    29   13   14 ar  
    30   13   39 1   
    31   14   15 ar  
    32   15   16 ar  
    33   15   40 1   
    34   16   41 1   
    35   18   42 1   
    36   19   20 1   
    37   20   21 1   
    38   20   23 2   
    39   21   24 1   
    40   22   23 1   
    41   22   47 1   
    42   24   25 ar  
    43   24   29 ar  
    44   25   26 ar  
    45   25   43 1   
    46   26   27 ar  
    47   26   44 1   
    48   27   28 ar  
    49   28   29 ar  
    50   28   45 1   
    51   29   46 1   
@<TRIPOS>SUBSTRUCTURE
     1 PF8         1 TEMP              0 ****  ****    0 ROOT
