@<TRIPOS>MOLECULE
molecule
   50    54     1     0     0
SMALL
bcc


@<TRIPOS>ATOM
      1 C4           0.0000     0.0000     0.0000 ca         1 PF9      -0.064000
      2 C7           1.3840     0.0020     2.4060 ca         1 PF9      -0.198000
      3 C6          -3.0820    -1.2450     4.5850 ca         1 PF9      -0.250800
      4 C9          -1.2280    -3.2160     4.2380 ca         1 PF9       0.417700
      5 C20          8.1630     0.0640     1.4380 ca         1 PF9      -0.156300
      6 C21          8.6860     0.0350    -0.9380 ca         1 PF9      -0.165300
      7 C8           1.3790     0.0000     0.0000 ca         1 PF9      -0.198000
      8 C18          7.7270     0.0390     0.0900 ca         1 PF9       0.413600
      9 C19          7.2010     0.0670     2.4670 ca         1 PF9      -0.082000
     10 C26         -3.0150    -0.6480     2.1510 cc         1 PF9      -0.267300
     11 N28         -4.2870     0.3870     0.6980 na         1 PF9       0.071400
     12 C27         -4.3070    -0.3920     1.7970 cd         1 PF9      -0.092300
     13 C2          -2.5670    -1.4650     3.3030 ca         1 PF9       0.039000
     14 C10         -2.6330    -2.0240     5.6300 ca         1 PF9       0.417700
     15 N12         -1.7350    -2.9710     5.4310 nb         1 PF9      -0.698000
     16 C5          -1.6180    -2.4790     3.1390 ca         1 PF9      -0.250800
     17 N29         -2.9540     0.6220     0.3440 nd         1 PF9      -0.507800
     18 C25         -2.1800     0.0070     1.2120 cc         1 PF9       0.419800
     19 C1          -0.6960     0.0020     1.2080 ca         1 PF9      -0.161500
     20 C11          2.0740     0.0000     1.2010 ca         1 PF9       0.130100
     21 C3           0.0050    -0.0030     2.4130 ca         1 PF9      -0.064000
     22 O13          3.4330     0.0050     1.1980 os         1 PF9      -0.345900
     23 C14          4.0790     0.0030    -0.0770 c3         1 PF9       0.127100
     24 C15          5.5210     0.0230     0.7690 ca         1 PF9       0.443600
     25 C17          5.8810     0.0470     2.1150 ca         1 PF9      -0.198300
     26 C22          9.5380     0.0780     1.7230 ca         1 PF9      -0.110000
     27 C24         10.4360     0.0730     0.7000 ca         1 PF9      -0.127000
     28 C23         10.0100     0.0540    -0.6260 ca         1 PF9      -0.120000
     29 N16          6.4190     0.0200    -0.1860 nb         1 PF9      -0.705000
     30 H4          -0.5420     0.0000    -0.9380 ha         1 PF9       0.145500
     31 H7           1.9300     0.0000     3.3420 ha         1 PF9       0.139500
     32 H6          -3.8180    -0.4690     4.7550 ha         1 PF9       0.143000
     33 H9          -0.4930    -4.0030     4.1200 h4         1 PF9       0.022100
     34 H21          8.3720     0.0200    -1.9740 ha         1 PF9       0.147000
     35 H8           1.9200    -0.0010    -0.9390 ha         1 PF9       0.139500
     36 H19          7.4990     0.0870     3.5080 ha         1 PF9       0.144000
     37 H30         -6.1060     1.4210     0.6830 h1         1 PF9       0.056700
     38 H30A        -5.1470     1.5730    -0.7960 h1         1 PF9       0.056700
     39 H30B        -6.0070     0.0660    -0.4500 h1         1 PF9       0.056700
     40 H27         -5.1900    -0.7020     2.3420 h4         1 PF9       0.174000
     41 H10         -3.0240    -1.8590     6.6270 h4         1 PF9       0.022100
     42 H5          -1.1960    -2.6840     2.1620 ha         1 PF9       0.143000
     43 H3          -0.5330    -0.0010     3.3530 ha         1 PF9       0.145500
     44 H14          3.7830     0.8850    -0.6330 h1         1 PF9       0.065700
     45 H14A         3.7900    -0.8840    -0.6270 h1         1 PF9       0.065700
     46 H17          5.1160     0.0970     2.8800 ha         1 PF9       0.154000
     47 H22          9.8810     0.0930     2.7500 ha         1 PF9       0.133000
     48 H24         11.4970     0.0880     0.9200 ha         1 PF9       0.131000
     49 H23         10.7450     0.0510    -1.4220 ha         1 PF9       0.132000
     50 C30         -5.4630     0.8950    -0.0130 c3         1 PF9       0.062600
@<TRIPOS>BOND
     1     7     1 ar
     2     1    19 ar
     3     1    30 1
     4    20     2 ar
     5     2    21 ar
     6     2    31 1
     7    13     3 ar
     8    14     3 ar
     9     3    32 1
    10     4    16 ar
    11     4    15 ar
    12     4    33 1
    13    26     5 ar
    14     5     9 ar
    15     5     8 ar
    16    28     6 ar
    17     6     8 ar
    18     6    34 1
    19    20     7 ar
    20     7    35 1
    21     8    29 ar
    22     9    25 ar
    23     9    36 1
    24    18    10 1
    25    13    10 1
    26    10    12 2
    27    11    50 1
    28    50    37 1
    29    50    38 1
    30    50    39 1
    31    17    11 1
    32    12    11 1
    33    12    40 1
    34    16    13 ar
    35    15    14 ar
    36    14    41 1
    37    16    42 1
    38    18    17 2
    39    19    18 1
    40    21    19 ar
    41    22    20 1
    42    21    43 1
    43    23    22 1
    44    24    23 1
    45    23    44 1
    46    23    45 1
    47    25    24 ar
    48    29    24 ar
    49    25    46 1
    50    27    26 ar
    51    26    47 1
    52    27    28 ar
    53    27    48 1
    54    28    49 1
@<TRIPOS>SUBSTRUCTURE
     1 PF9         1 TEMP              0 ****  ****    0 ROOT
