@<TRIPOS>MOLECULE
PF9
   50    50     1     0     0
SMALL
bcc


@<TRIPOS>ATOM
      1 C4         -0.1840   -1.7340   -0.4010 c2        1 PF9     -0.148000
      2 C7          2.3760   -1.5940    0.8250 c1        1 PF9     -0.155000
      3 C6         -2.7610   -0.2850    4.4000 c3        1 PF9     -0.239000
      4 C9         -0.2130   -2.6510    3.6930 c1        1 PF9      0.041000
      5 C20         5.9100    0.8270    2.1690 c2        1 PF9     -0.090000
      6 C21         6.1580    1.0050   -0.2840 c2        1 PF9     -0.099000
      7 C8          0.8590   -2.6340   -0.8010 c2        1 PF9     -0.011000
      8 C18         5.7660    0.2680    0.8700 c2        1 PF9     -0.042000
      9 C19         5.5280    0.1420    3.3930 c2        1 PF9     -0.109000
     10 C26        -1.7840    0.2240    2.1800 c2        1 PF9     -0.246000
     11 N28        -2.3230    1.8840    0.7470 na        1 PF9     -0.164000
     12 C27        -2.6160    1.3740    1.9850 c2        1 PF9     -0.068000
     13 C2         -1.7830   -0.6120    3.3250 c2        1 PF9      0.351000
     14 C10         2.9790   -4.8900    2.9500 c1        1 PF9      0.007000
     15 N12         1.9860   -4.4230    3.3710 n2        1 PF9     -0.366000
     16 C5         -0.9560   -1.6620    3.4930 c1        1 PF9     -0.576000
     17 N29        -1.3840    1.1770    0.1200 n2        1 PF9     -0.089000
     18 C25        -1.0090    0.1530    0.9450 c2        1 PF9     -0.031000
     19 C1          0.0230   -0.8070    0.5740 c2        1 PF9      0.015000
     20 C11         2.0890   -2.5280   -0.1980 c2        1 PF9     -0.058000
     21 C3          1.3280   -0.7060    1.2750 c3        1 PF9     -0.183000
     22 O13         3.1180   -3.3460   -0.6590 os        1 PF9     -0.193000
     23 C14         4.2560   -3.3770    0.1990 c3        1 PF9      0.083000
     24 C15         4.7640   -2.0410    0.4930 c1        1 PF9      0.101000
     25 C17         4.3900   -0.5210    3.6060 c2        1 PF9     -0.250000
     26 C22         6.4800    2.1060    2.2660 c2        1 PF9     -0.146000
     27 C24         6.8930    2.7940    1.1250 c2        1 PF9     -0.096000
     28 C23         6.7200    2.2550   -0.1450 c1        1 PF9     -0.357000
     29 N16         5.2460   -1.0080    0.7190 n2        1 PF9      0.069000
     30 H4         -1.1530   -1.8140   -0.9190 ha        1 PF9      0.151000
     31 H7          1.1690   -0.9290    2.3830 hc        1 PF9      0.198500
     32 H6         -2.5450    0.7340    4.8110 hc        1 PF9      0.111667
     33 H9          1.1530   -3.9810    3.6860 hn        1 PF9      0.328000
     34 H21         6.0100    0.5750   -1.2840 ha        1 PF9      0.113000
     35 H8          0.6580   -3.3710   -1.5930 ha        1 PF9      0.158000
     36 H19         3.5990   -0.6330    2.8520 ha        1 PF9      0.114000
     37 H30        -2.7170    2.7770    0.2700 hn        1 PF9      0.347000
     38 H30A       -3.7480    4.0350   -1.4650 ha        1 PF9      0.075000
     39 H30B       -2.6260    5.0570   -0.4080 ha        1 PF9      0.075000
     40 H27        -3.3580    1.8090    2.6560 h4        1 PF9      0.181000
     41 H10        -3.8000   -0.2900    3.9870 hc        1 PF9      0.111667
     42 H5         -2.7040   -1.0250    5.2360 hc        1 PF9      0.111667
     43 H3          1.7200    0.3560    1.2360 hc        1 PF9      0.198500
     44 H14         4.0000   -3.8890    1.1750 h1        1 PF9      0.162500
     45 H14A        5.0170   -3.9650   -0.3890 h1        1 PF9      0.162500
     46 H17         4.1770   -0.9990    4.5720 ha        1 PF9      0.114000
     47 H22         6.2690    0.2390    4.2090 ha        1 PF9      0.121000
     48 H24         6.5990    2.5480    3.2670 ha        1 PF9      0.111000
     49 H23         7.3650    3.7810    1.2340 ha        1 PF9      0.117000
     50 C30        -3.0980    4.0830   -0.5830 c1        1 PF9     -0.011000
@<TRIPOS>BOND
     1    1    7 1   
     2    1   19 1   
     3    1   30 1   
     4    2   20 1   
     5    2   21 1   
     6    3   13 1   
     7    3   32 1   
     8    3   41 1   
     9    3   42 1   
    10    4   16 1   
    11    5    8 1   
    12    5    9 1   
    13    5   26 1   
    14    6    8 1   
    15    6   28 1   
    16    6   34 1   
    17    7   20 1   
    18    7   35 1   
    19    8   29 1   
    20    9   25 1   
    21    9   47 1   
    22   10   12 1   
    23   10   13 1   
    24   10   18 1   
    25   11   12 1   
    26   11   17 1   
    27   11   37 1   
    28   12   40 1   
    29   13   16 1   
    30   14   15 1   
    31   15   33 1   
    32   17   18 1   
    33   18   19 1   
    34   19   21 1   
    35   20   22 1   
    36   21   31 1   
    37   21   43 1   
    38   22   23 1   
    39   23   24 1   
    40   23   44 1   
    41   23   45 1   
    42   24   29 1   
    43   25   36 1   
    44   25   46 1   
    45   26   27 1   
    46   26   48 1   
    47   27   28 1   
    48   27   49 1   
    49   38   50 1   
    50   39   50 1   
@<TRIPOS>SUBSTRUCTURE
     1 PF9         1 TEMP              0 ****  ****    0 ROOT
