@<TRIPOS>MOLECULE
molecule
   48    50     1     0     0
SMALL
bcc


@<TRIPOS>ATOM
      1 O9           0.0000     0.0000     0.0000 o          1 PFA      -0.634500
      2 C14          1.2160     0.0000     0.0000 c          1 PFA       0.789500
      3 N6           1.8790     0.0000     1.1720 ns         1 PFA      -0.560500
      4 C10          3.2280     0.0010     1.1840 c          1 PFA       0.569200
      5 O8           3.8340     0.0080     2.2400 o          1 PFA      -0.584500
      6 N5           1.8770    -0.0110    -1.1700 n          1 PFA      -0.137000
      7 N3           3.2760    -0.0100    -1.2030 nc         1 PFA      -0.388300
      8 C17          3.9540    -0.0050    -0.0870 cd         1 PFA       0.314200
      9 C4           1.1580    -0.0180    -2.3710 ca         1 PFA       0.072600
     10 C5           1.5910    -0.7950    -3.4370 ca         1 PFA      -0.118000
     11 C6           0.8800    -0.8010    -4.6200 ca         1 PFA      -0.076300
     12 C7           1.3510    -1.6460    -5.7760 c3         1 PFA      -0.047300
     13 C3           0.0100     0.7540    -2.4970 ca         1 PFA      -0.118000
     14 C2          -0.6960     0.7520    -3.6830 ca         1 PFA      -0.076300
     15 C19         -1.9410     1.5880    -3.8200 c3         1 PFA      -0.047300
     16 C1          -0.2650    -0.0310    -4.7460 ca         1 PFA       0.078100
     17 O20         -0.9630    -0.0360    -5.9110 os         1 PFA      -0.216200
     18 C21         -1.8830    -1.0330    -5.8130 ca         1 PFA       0.089100
     19 C31         -1.9530    -1.8010    -4.6620 ca         1 PFA      -0.182000
     20 C22         -2.7520    -1.2810    -6.8670 ca         1 PFA      -0.128000
     21 C24         -3.6850    -2.2930    -6.7680 ca         1 PFA      -0.065300
     22 C25         -4.6290    -2.5630    -7.9110 c3         1 PFA      -0.028400
     23 C8          -5.4660    -1.3130    -8.1870 c3         1 PFA      -0.084600
     24 C9          -3.8250    -2.9230    -9.1620 c3         1 PFA      -0.084600
     25 C26         -3.7590    -3.0570    -5.6130 ca         1 PFA       0.091100
     26 C29         -2.8870    -2.8130    -4.5630 ca         1 PFA      -0.159000
     27 O27         -4.6780    -4.0540    -5.5160 oh         1 PFA      -0.508100
     28 HN6          1.3710    -0.0010     2.0340 hn         1 PFA       0.369500
     29 H17C         5.0370    -0.0040    -0.1020 h4         1 PFA       0.088800
     30 HC5          2.4860    -1.3980    -3.3400 ha         1 PFA       0.157000
     31 HC71         0.8600    -2.6110    -5.7420 hc         1 PFA       0.052700
     32 HC72         2.4240    -1.7850    -5.7080 hc         1 PFA       0.052700
     33 HC73         1.1090    -1.1500    -6.7080 hc         1 PFA       0.052700
     34 HC3         -0.3280     1.3620    -1.6670 ha         1 PFA       0.157000
     35 H191        -1.8700     2.4510    -3.1690 hc         1 PFA       0.052700
     36 H192        -2.0430     1.9190    -4.8470 hc         1 PFA       0.052700
     37 H193        -2.8060     0.9980    -3.5440 hc         1 PFA       0.052700
     38 H31C        -1.2720    -1.6110    -3.8410 ha         1 PFA       0.155000
     39 H22C        -2.7170    -0.6620    -7.7550 ha         1 PFA       0.149000
     40 H25C        -5.2830    -3.3860    -7.6530 hc         1 PFA       0.074700
     41 HC81        -5.8430    -0.9180    -7.2510 hc         1 PFA       0.036033
     42 HC82        -4.8520    -0.5660    -8.6730 hc         1 PFA       0.036033
     43 HC83        -6.2980    -1.5710    -8.8310 hc         1 PFA       0.036033
     44 HC91        -4.4880    -3.3400    -9.9090 hc         1 PFA       0.036033
     45 HC92        -3.3520    -2.0320    -9.5560 hc         1 PFA       0.036033
     46 HC93        -3.0650    -3.6520    -8.9050 hc         1 PFA       0.036033
     47 H29C        -2.9430    -3.4120    -3.6620 ha         1 PFA       0.137000
     48 H27O        -5.0830    -4.0270    -4.6650 ho         1 PFA       0.418000
@<TRIPOS>BOND
     1     1     2 2
     2     2     3 1
     3     2     6 1
     4     3     4 1
     5     3    28 1
     6     4     5 2
     7     4     8 1
     8     6     7 1
     9     6     9 1
    10     7     8 2
    11     8    29 1
    12     9    10 ar
    13     9    13 ar
    14    10    11 ar
    15    10    30 1
    16    11    12 1
    17    11    16 ar
    18    12    31 1
    19    12    32 1
    20    12    33 1
    21    13    14 ar
    22    13    34 1
    23    14    15 1
    24    14    16 ar
    25    15    35 1
    26    15    36 1
    27    15    37 1
    28    16    17 1
    29    17    18 1
    30    18    19 ar
    31    18    20 ar
    32    19    26 ar
    33    19    38 1
    34    20    21 ar
    35    20    39 1
    36    21    22 1
    37    21    25 ar
    38    22    23 1
    39    22    24 1
    40    22    40 1
    41    23    41 1
    42    23    42 1
    43    23    43 1
    44    24    44 1
    45    24    45 1
    46    24    46 1
    47    25    26 ar
    48    25    27 1
    49    26    47 1
    50    27    48 1
@<TRIPOS>SUBSTRUCTURE
     1 PFA         1 TEMP              0 ****  ****    0 ROOT
