@<TRIPOS>MOLECULE
PFB
   16    16     1     0     0
SMALL
bcc


@<TRIPOS>ATOM
      1 C1         -0.0170   -0.0020   -0.0290 ca        1 PFB     -0.127300
      2 C2          1.3900   -0.0030   -0.0210 ca        1 PFB      0.150900
      3 C3          2.1090   -0.0020    1.2030 ca        1 PFB      0.062900
      4 C4          1.4050   -0.0030    2.4300 ca        1 PFB      0.112900
      5 C5         -0.0110   -0.0010    2.4280 ca        1 PFB      0.062900
      6 C6         -0.7120   -0.0030    1.1940 ca        1 PFB      0.150900
      7 C7         -0.7660   -0.0010   -1.3250 c3        1 PFB      0.179700
      8 F2          2.0820    0.0030   -1.1800 f         1 PFB     -0.105900
      9 F3          3.4580   -0.0000    1.1970 f         1 PFB     -0.100900
     10 F4          2.0790   -0.0050    3.5980 f         1 PFB     -0.096900
     11 F5         -0.6900   -0.0000    3.5940 f         1 PFB     -0.100900
     12 F6         -2.0620    0.0030    1.2150 f         1 PFB     -0.105900
     13 O1         -0.9810   -1.3550   -1.6970 oh        1 PFB     -0.587800
     14 H71        -1.7530    0.5230   -1.1980 h1        1 PFB      0.047700
     15 H72        -0.1630    0.5230   -2.1170 h1        1 PFB      0.047700
     16 HO1        -1.4640   -1.3330   -2.5320 ho        1 PFB      0.410000
@<TRIPOS>BOND
     1    1    2 ar  
     2    1    6 ar  
     3    1    7 1   
     4    2    3 ar  
     5    2    8 1   
     6    3    4 ar  
     7    3    9 1   
     8    4    5 ar  
     9    4   10 1   
    10    5    6 ar  
    11    5   11 1   
    12    6   12 1   
    13    7   13 1   
    14    7   14 1   
    15    7   15 1   
    16   13   16 1   
@<TRIPOS>SUBSTRUCTURE
     1 PFB         1 TEMP              0 ****  ****    0 ROOT
