@<TRIPOS>MOLECULE
molecule
   16    16     1     0     0
SMALL
bcc


@<TRIPOS>ATOM
      1 C1           0.0000     0.0000     0.0000 ca         1 PFB      -0.136300
      2 C2           1.3830     0.0000     0.0000 ca         1 PFB       0.154900
      3 C3           2.0780     0.0000     1.1980 ca         1 PFB       0.066400
      4 C4           1.3850    -0.0010     2.3990 ca         1 PFB       0.114900
      5 C5           0.0010    -0.0020     2.3980 ca         1 PFB       0.066400
      6 C6          -0.6920     0.0050     1.1990 ca         1 PFB       0.154900
      7 C7          -0.7540     0.0010    -1.3050 c3         1 PFB       0.194700
      8 F2           2.0580     0.0020    -1.1710 f          1 PFB      -0.105400
      9 F3           3.4290     0.0010     1.1970 f          1 PFB      -0.103400
     10 F4           2.0610    -0.0010     3.5680 f          1 PFB      -0.098900
     11 F5          -0.6750    -0.0020     3.5680 f          1 PFB      -0.103400
     12 F6          -2.0420     0.0040     1.1990 f          1 PFB      -0.105400
     13 O1          -0.9930    -1.3450    -1.7190 oh         1 PFB      -0.598800
     14 H71         -0.1680     0.5120    -2.0590 h1         1 PFB       0.043700
     15 H72         -1.7000     0.5120    -1.1750 h1         1 PFB       0.043700
     16 HO1         -1.4650    -1.3440    -2.5350 ho         1 PFB       0.413000
@<TRIPOS>BOND
     1     1     2 ar
     2     1     6 ar
     3     1     7 1
     4     2     3 ar
     5     2     8 1
     6     3     4 ar
     7     3     9 1
     8     4     5 ar
     9     4    10 1
    10     5     6 ar
    11     5    11 1
    12     6    12 1
    13     7    13 1
    14     7    14 1
    15     7    15 1
    16    13    16 1
@<TRIPOS>SUBSTRUCTURE
     1 PFB         1 TEMP              0 ****  ****    0 ROOT
