@<TRIPOS>MOLECULE
molecule
   48    50     1     0     0
SMALL
bcc


@<TRIPOS>ATOM
      1 F29          0.0000     0.0000     0.0000 f          1 PFD      -0.139900
      2 C28          1.3500     0.0000     0.0000 ca         1 PFD       0.104900
      3 C26          2.0420     0.0000     1.2000 ca         1 PFD      -0.133500
      4 C24          3.4240    -0.0010     1.2020 ca         1 PFD      -0.154500
      5 C27          2.0430     0.0000    -1.2000 ca         1 PFD      -0.133500
      6 C25          3.4240     0.0050    -1.2000 ca         1 PFD      -0.154500
      7 C23          4.1180    -0.0010     0.0010 ca         1 PFD       0.094100
      8 O22          5.4760    -0.0010     0.0010 os         1 PFD      -0.215200
      9 C20          5.8690    -0.1040     1.2990 ca         1 PFD       0.092100
     10 C16          6.0240     1.0380     2.0690 ca         1 PFD      -0.130000
     11 C12          6.4240     0.9340     3.3880 ca         1 PFD      -0.134000
     12 C17          6.1160    -1.3520     1.8520 ca         1 PFD      -0.130000
     13 C13          6.5200    -1.4550     3.1690 ca         1 PFD      -0.134000
     14 C6           6.6700    -0.3130     3.9390 ca         1 PFD       0.038100
     15 O2           7.0630    -0.4170     5.2380 os         1 PFD      -0.261900
     16 C1           8.4900    -0.3660     5.2420 c3         1 PFD      -0.008200
     17 C5           8.9640    -0.4950     6.6910 c3         1 PFD      -0.068400
     18 C11          8.3360     0.6190     7.5320 c3         1 PFD       0.117400
     19 O15          8.6760     0.4280     8.9070 os         1 PFD      -0.415600
     20 C19          8.0650     1.4920     9.6370 c3         1 PFD       0.127400
     21 C21          8.3920     1.3450    11.1240 c3         1 PFD      -0.093100
     22 C4           9.0080    -1.5650     4.4700 c          1 PFD       0.685000
     23 O10          8.7220    -2.6950     4.8070 o          1 PFD      -0.566500
     24 N9           9.7890    -1.3320     3.3990 ns         1 PFD      -0.567500
     25 C14         10.1110    -0.0920     3.0180 c          1 PFD       0.814500
     26 O18         10.8250     0.0300     2.0400 o          1 PFD      -0.630500
     27 N7           9.7080     1.0250     3.6330 ns         1 PFD      -0.567500
     28 C3           8.9160     0.9940     4.7250 c          1 PFD       0.685000
     29 O8           8.5590     2.0150     5.2730 o          1 PFD      -0.566500
     30 H26          1.5000     0.0000     2.1370 ha         1 PFD       0.150500
     31 H24          3.9640    -0.0030     2.1400 ha         1 PFD       0.154000
     32 H27          1.5010     0.0050    -2.1380 ha         1 PFD       0.150500
     33 H25          3.9650     0.0050    -2.1380 ha         1 PFD       0.154000
     34 H16          5.8320     2.0130     1.6370 ha         1 PFD       0.156000
     35 H12          6.5430     1.8260     3.9900 ha         1 PFD       0.165500
     36 H17          5.9980    -2.2450     1.2500 ha         1 PFD       0.156000
     37 H13          6.7130    -2.4300     3.6020 ha         1 PFD       0.165500
     38 H51          8.6630    -1.4580     7.0860 hc         1 PFD       0.081700
     39 H52         10.0430    -0.4100     6.7280 hc         1 PFD       0.081700
     40 H111         8.7110     1.5790     7.1980 h1         1 PFD       0.052200
     41 H112         7.2590     0.5930     7.4200 h1         1 PFD       0.052200
     42 H191         8.4430     2.4410     9.2760 h1         1 PFD       0.026700
     43 H192         6.9920     1.4550     9.4980 h1         1 PFD       0.026700
     44 H211         7.9380     2.1600    11.6760 hc         1 PFD       0.043700
     45 H212         9.4660     1.3700    11.2620 hc         1 PFD       0.043700
     46 H213         8.0030     0.4020    11.4880 hc         1 PFD       0.043700
     47 HN9         10.1390    -2.1090     2.8740 hn         1 PFD       0.371000
     48 HN7         10.0040     1.9110     3.2730 hn         1 PFD       0.371000
@<TRIPOS>BOND
     1     1     2 1
     2     2     3 ar
     3     2     5 ar
     4     3     4 ar
     5     3    30 1
     6     4     7 ar
     7     4    31 1
     8     5     6 ar
     9     5    32 1
    10     6     7 ar
    11     6    33 1
    12     7     8 1
    13     8     9 1
    14     9    10 ar
    15     9    12 ar
    16    10    11 ar
    17    10    34 1
    18    11    14 ar
    19    11    35 1
    20    12    13 ar
    21    12    36 1
    22    13    14 ar
    23    13    37 1
    24    14    15 1
    25    15    16 1
    26    16    17 1
    27    16    22 1
    28    16    28 1
    29    17    18 1
    30    17    38 1
    31    17    39 1
    32    18    19 1
    33    18    40 1
    34    18    41 1
    35    19    20 1
    36    20    21 1
    37    20    42 1
    38    20    43 1
    39    21    44 1
    40    21    45 1
    41    21    46 1
    42    22    23 2
    43    22    24 1
    44    24    25 1
    45    24    47 1
    46    25    26 2
    47    25    27 1
    48    27    28 1
    49    27    48 1
    50    28    29 2
@<TRIPOS>SUBSTRUCTURE
     1 PFD         1 TEMP              0 ****  ****    0 ROOT
