@<TRIPOS>MOLECULE
PFE
   52    55     1     0     0
SMALL
bcc


@<TRIPOS>ATOM
      1 O51          0.0000     0.0000     0.0000 oh         1 PFE      -0.582800
      2 C47          1.4290     0.0000     0.0000 c3         1 PFE       0.235100
      3 C48          1.9320     0.0000     1.4200 cc         1 PFE       0.455700
      4 S45          2.2940     1.3540     2.4460 ss         1 PFE      -0.360300
      5 C43          2.8050     0.4270     3.8850 cc         1 PFE      -0.063400
      6 N44          2.2120    -1.0220     2.1920 nd         1 PFE      -0.547000
      7 C40          2.6450    -0.8540     3.4300 cd         1 PFE       0.368800
      8 C36          2.9540    -2.0180     4.2970 ca         1 PFE      -0.110500
      9 C35          3.5920    -3.1350     3.7660 ca         1 PFE      -0.073000
     10 C33          2.6100    -1.9930     5.6470 ca         1 PFE      -0.107000
     11 C37          2.8970    -3.0770     6.4540 ca         1 PFE      -0.083000
     12 C34          3.5250    -4.1880     5.9260 ca         1 PFE      -0.133000
     13 C32          3.8720    -4.2220     4.5800 ca         1 PFE      -0.011400
     14 N3           4.5060    -5.3470     4.0500 nu         1 PFE      -0.286300
     15 C4           4.2690    -5.7220     2.7420 ca         1 PFE       0.537200
     16 N2           3.3620    -5.0940     2.0090 nb         1 PFE      -0.708000
     17 C7           3.1230    -5.4420     0.7540 ca         1 PFE       0.678900
     18 C6           4.9890    -6.7870     2.1510 ca         1 PFE      -0.306600
     19 C9           5.9640    -7.5040     2.8530 ca         1 PFE      -0.183000
     20 C13          6.6270    -8.5280     2.2370 ca         1 PFE       0.108100
     21 O15          7.5740    -9.2230     2.9210 os         1 PFE      -0.262900
     22 C20          7.6400    -8.6530     4.2300 c3         1 PFE       0.172400
     23 C21          8.6930    -9.3940     5.0560 c3         1 PFE      -0.002100
     24 C8           4.6980    -7.1220     0.8050 ca         1 PFE       0.452600
     25 N5           3.7590    -6.4200     0.1530 nb         1 PFE      -0.680000
     26 C18          5.3940    -8.1710     0.1920 ca         1 PFE      -0.271300
     27 C16          6.3480    -8.8610     0.9060 ca         1 PFE       0.148100
     28 O17          7.0240    -9.8800     0.3130 os         1 PFE      -0.264900
     29 C19          6.5260    -9.9860    -1.0220 c3         1 PFE       0.168400
     30 C26          7.2500   -11.1210    -1.7490 c3         1 PFE      -0.002100
     31 H51         -0.3140     0.0040    -0.8890 ho         1 PFE       0.395000
     32 H471         1.7900    -0.8840    -0.5110 h1         1 PFE      -0.000300
     33 H472         1.7900     0.8840    -0.5110 h1         1 PFE      -0.000300
     34 H431         3.1450     0.7810     4.8510 h4         1 PFE       0.174000
     35 H351         3.8620    -3.1580     2.7170 ha         1 PFE       0.149000
     36 H331         2.1170    -1.1230     6.0650 ha         1 PFE       0.107000
     37 H371         2.6280    -3.0560     7.5030 ha         1 PFE       0.103000
     38 H341         3.7460    -5.0360     6.5620 ha         1 PFE       0.103000
     39 H31          5.1290    -5.8850     4.6190 hn         1 PFE       0.286800
     40 H71          2.3700    -4.8960     0.1990 h5         1 PFE      -0.003900
     41 H91          6.2640    -7.1830     3.8430 ha         1 PFE       0.135000
     42 H201         7.9110    -7.6070     4.1550 h1         1 PFE       0.006200
     43 H202         6.6740    -8.7430     4.7120 h1         1 PFE       0.006200
     44 H211         8.7430    -8.9630     6.0480 hc         1 PFE       0.012033
     45 H212         8.4230   -10.4410     5.1300 hc         1 PFE       0.012033
     46 H213         9.6590    -9.3040     4.5740 hc         1 PFE       0.012033
     47 H181         5.1850    -8.4360    -0.8380 ha         1 PFE       0.155000
     48 H191         5.4630   -10.1940    -0.9950 h1         1 PFE       0.014200
     49 H192         6.6980    -9.0530    -1.5460 h1         1 PFE       0.014200
     50 H261         6.8710   -11.2010    -2.7610 hc         1 PFE       0.011367
     51 H262         7.0780   -12.0530    -1.2240 hc         1 PFE       0.011367
     52 H263         8.3130   -10.9130    -1.7760 hc         1 PFE       0.011367
@<TRIPOS>BOND
     1     1     2 1   
     2     1    31 1   
     3     2     3 1   
     4     2    32 1   
     5     2    33 1   
     6     3     4 1   
     7     3     6 2   
     8     4     5 1   
     9     5     7 2   
    10     5    34 1   
    11     6     7 1   
    12     7     8 1   
    13     8     9 ar  
    14     8    10 ar  
    15     9    13 ar  
    16     9    35 1   
    17    10    11 ar  
    18    10    36 1   
    19    11    12 ar  
    20    11    37 1   
    21    12    13 ar  
    22    12    38 1   
    23    13    14 1   
    24    14    15 1   
    25    14    39 1   
    26    15    16 ar  
    27    15    18 ar  
    28    16    17 ar  
    29    17    25 ar  
    30    17    40 1   
    31    18    19 ar  
    32    18    24 ar  
    33    19    20 ar  
    34    19    41 1   
    35    20    21 1   
    36    20    27 ar  
    37    21    22 1   
    38    22    23 1   
    39    22    42 1   
    40    22    43 1   
    41    23    44 1   
    42    23    45 1   
    43    23    46 1   
    44    24    25 ar  
    45    24    26 ar  
    46    26    27 ar  
    47    26    47 1   
    48    27    28 1   
    49    28    29 1   
    50    29    30 1   
    51    29    48 1   
    52    29    49 1   
    53    30    50 1   
    54    30    51 1   
    55    30    52 1   
@<TRIPOS>SUBSTRUCTURE
     1 PFE         1 TEMP              0 ****  ****    0 ROOT
