@<TRIPOS>MOLECULE
PFI
   53    55     1     0     0
SMALL
bcc


@<TRIPOS>ATOM
      1 F26         0.4200    0.2730    0.0930 f         1 PFI     -0.128900
      2 C23         1.7590    0.0760    0.0930 ca        1 PFI      0.099900
      3 C22         2.4570   -0.1010    1.3190 ca        1 PFI      0.099100
      4 O24         1.6610   -0.0840    2.4420 os        1 PFI     -0.320900
      5 C25         2.3210    0.0780    3.7140 c3        1 PFI      0.140100
      6 C2          1.3120    0.7960    4.5940 c3        1 PFI     -0.111100
      7 C1          2.6780   -1.2820    4.2810 c3        1 PFI     -0.111100
      8 C21         3.8390   -0.3050    1.3020 ca        1 PFI     -0.182000
      9 C20         4.5250   -0.3300    0.0890 ca        1 PFI     -0.104000
     10 C19         3.8490   -0.1600   -1.1220 ca        1 PFI     -0.090300
     11 C18         2.4650    0.0420   -1.1170 ca        1 PFI     -0.142000
     12 C12         4.5930   -0.1780   -2.4120 c3        1 PFI     -0.033100
     13 C11         4.3350   -1.4640   -3.1760 c3        1 PFI     -0.069400
     14 C5          5.0210   -1.4990   -4.5500 c3        1 PFI      0.174800
     15 C6          4.1730   -0.7180   -5.5660 c3        1 PFI     -0.086200
     16 C17         5.2440   -2.9400   -5.0510 c3        1 PFI     -0.085700
     17 C13         6.2220   -3.7280   -4.1750 c3        1 PFI     -0.076900
     18 C16         3.9560   -3.7610   -5.1370 c3        1 PFI     -0.076900
     19 C15         4.2460   -5.1220   -4.5190 c3        1 PFI     -0.079900
     20 C14         5.4890   -4.9570   -3.6580 c3        1 PFI     -0.079900
     21 O4          6.3160   -0.8960   -4.3480 os        1 PFI     -0.423900
     22 C3          7.0060   -0.4210   -5.4450 c         1 PFI      0.739800
     23 O10         8.1840   -0.1710   -5.1820 o         1 PFI     -0.580500
     24 C8          6.3170   -0.2160   -6.7130 ce        1 PFI     -0.371200
     25 C7          4.9740   -0.3480   -6.7670 c2        1 PFI      0.161900
     26 O9          4.2110   -0.1500   -7.8820 oh        1 PFI     -0.485100
     27 H25         3.2410    0.7130    3.5930 h1        1 PFI      0.050700
     28 H21A        1.7400    0.9230    5.6160 hc        1 PFI      0.048867
     29 H22         1.0720    1.7980    4.1660 hc        1 PFI      0.048867
     30 H23         0.3670    0.2050    4.6620 hc        1 PFI      0.048867
     31 H11         1.7570   -1.9020    4.4050 hc        1 PFI      0.048867
     32 H12         3.1670   -1.1580    5.2760 hc        1 PFI      0.048867
     33 H13         3.3740   -1.8240    3.5970 hc        1 PFI      0.048867
     34 H21         4.3940   -0.4510    2.2400 ha        1 PFI      0.143000
     35 H20         5.6150   -0.4870    0.0890 ha        1 PFI      0.141000
     36 H18         1.9190    0.1810   -2.0610 ha        1 PFI      0.145000
     37 H121        4.2790    0.7020   -3.0350 hc        1 PFI      0.061700
     38 H122        5.6960   -0.0730   -2.2260 hc        1 PFI      0.061700
     39 H111        4.6990   -2.3340   -2.5700 hc        1 PFI      0.059200
     40 H112        3.2300   -1.5900   -3.3290 hc        1 PFI      0.059200
     41 H61         3.2870   -1.3380   -5.8660 hc        1 PFI      0.089200
     42 H62         3.7870    0.2280   -5.0970 hc        1 PFI      0.089200
     43 H17         5.6870   -2.8480   -6.0820 hc        1 PFI      0.053700
     44 H131        7.1080   -4.0340   -4.7870 hc        1 PFI      0.049950
     45 H132        6.6080   -3.1000   -3.3330 hc        1 PFI      0.049950
     46 H161        3.1210   -3.2610   -4.5850 hc        1 PFI      0.049950
     47 H162        3.6330   -3.8690   -6.2020 hc        1 PFI      0.049950
     48 H151        4.4280   -5.8800   -5.3220 hc        1 PFI      0.043700
     49 H152        3.3780   -5.4790   -3.9110 hc        1 PFI      0.043700
     50 H141        5.2010   -4.8120   -2.5860 hc        1 PFI      0.043700
     51 H142        6.1390   -5.8650   -3.7110 hc        1 PFI      0.043700
     52 H8          6.9420    0.0640   -7.5700 ha        1 PFI      0.167000
     53 HO9         4.7910    0.1160   -8.6140 ho        1 PFI      0.433000
@<TRIPOS>BOND
     1    1    2 1
     2    2    3 ar
     3    2   11 ar
     4    3    4 1
     5    3    8 ar
     6    4    5 1
     7    5    6 1
     8    5    7 1
     9    5   27 1
    10    6   28 1
    11    6   29 1
    12    6   30 1
    13    7   31 1
    14    7   32 1
    15    7   33 1
    16    8    9 ar
    17    8   34 1
    18    9   10 ar
    19    9   35 1
    20   10   11 ar
    21   10   12 1
    22   11   36 1
    23   12   13 1
    24   12   37 1
    25   12   38 1
    26   13   14 1
    27   13   39 1
    28   13   40 1
    29   14   15 1
    30   14   16 1
    31   14   21 1
    32   15   25 1
    33   15   41 1
    34   15   42 1
    35   16   17 1
    36   16   18 1
    37   16   43 1
    38   17   20 1
    39   17   44 1
    40   17   45 1
    41   18   19 1
    42   18   46 1
    43   18   47 1
    44   19   20 1
    45   19   48 1
    46   19   49 1
    47   20   50 1
    48   20   51 1
    49   21   22 1
    50   22   23 2
    51   22   24 1
    52   24   25 2
    53   24   52 1
    54   25   26 1
    55   26   53 1
@<TRIPOS>SUBSTRUCTURE
     1 PFI         1 TEMP              0 ****  ****    0 ROOT
