@<TRIPOS>MOLECULE
molecule
   51    55     1     0     0
SMALL
bcc


@<TRIPOS>ATOM
      1 C4           0.0000     0.0000     0.0000 ca         1 PFJ      -0.182300
      2 C7           3.4390     0.0000     1.2020 ca         1 PFJ       0.723200
      3 C6           2.0480     0.0000     1.2410 ca         1 PFJ      -0.243600
      4 C9           3.4250    -0.0000    -1.0620 ca         1 PFJ       0.635900
      5 C21          3.7220    -1.7150     6.1390 ca         1 PFJ       0.524300
      6 C18          5.5630     0.7020     4.1320 c3         1 PFJ      -0.097400
      7 C16          4.5600    -1.2110     3.0940 c3         1 PFJ       0.236800
      8 C19          4.5720     1.2110     3.0840 c3         1 PFJ       0.256800
      9 C26          3.2720    -3.8450     7.7080 ca         1 PFJ       0.267300
     10 C14         -0.0150     0.0010     4.7920 c3         1 PFJ       0.124700
     11 C2          -0.0720     0.0010     2.4140 ca         1 PFJ       0.116100
     12 C3           1.3190     0.0010     2.4440 ca         1 PFJ      -0.182000
     13 N8           4.1580     0.0010     0.0630 nb         1 PFJ      -0.702000
     14 N10          2.0800    -0.0000    -1.1550 nb         1 PFJ      -0.692000
     15 C5           1.3930     0.0000     0.0000 ca         1 PFJ       0.414600
     16 C1          -0.7320     0.0000     1.1900 ca         1 PFJ       0.126100
     17 O11         -2.0930    -0.0010     1.1380 os         1 PFJ      -0.340900
     18 C12         -2.7410     1.2700     1.1120 c3         1 PFJ       0.138700
     19 N15          4.1500     0.0010     2.3830 nh         1 PFJ      -0.916300
     20 C17          5.0480    -0.6940     4.4490 c3         1 PFJ       0.139100
     21 O20          3.9460    -0.6210     5.3460 os         1 PFJ      -0.444100
     22 N24          4.0720    -2.9180     5.6540 nb         1 PFJ      -0.708000
     23 C25          3.8490    -3.9910     6.4340 ca         1 PFJ       0.333300
     24 C30          4.1910    -5.2650     5.9860 ca         1 PFJ      -0.178300
     25 C29          3.9700    -6.3930     6.7750 ca         1 PFJ      -0.103000
     26 C28          3.4020    -6.2490     8.0310 ca         1 PFJ      -0.127000
     27 C27          3.0560    -4.9800     8.4880 ca         1 PFJ      -0.151300
     28 N23          2.9300    -2.6300     8.1710 nb         1 PFJ      -0.599000
     29 C22          3.1600    -1.5700     7.3770 ca         1 PFJ       0.291900
     30 H4          -0.5290    -0.0000    -0.9460 ha         1 PFJ       0.164000
     31 H9           3.9740    -0.0000    -1.9960 h5         1 PFJ       0.049100
     32 H181         5.5350     1.3260     5.0170 hc         1 PFJ       0.068200
     33 H182         6.5630     0.6540     3.7200 hc         1 PFJ       0.068200
     34 H161         5.3660    -1.7060     2.5650 h1         1 PFJ       0.056700
     35 H162         3.7160    -1.8770     3.2250 h1         1 PFJ       0.056700
     36 H191         3.7250     1.6860     3.5630 h1         1 PFJ       0.040700
     37 H192         5.0630     1.8930     2.4000 h1         1 PFJ       0.040700
     38 H141         0.6310     0.8710     4.8130 h1         1 PFJ       0.044700
     39 H142         0.5880    -0.8980     4.8270 h1         1 PFJ       0.044700
     40 H143        -0.6800     0.0240     5.6470 h1         1 PFJ       0.044700
     41 H3           1.8410     0.0410     3.3930 ha         1 PFJ       0.162000
     42 H121        -3.2830     1.3800     0.1810 h1         1 PFJ       0.038033
     43 H122        -1.9990     2.0550     1.1930 h1         1 PFJ       0.038033
     44 H123        -3.4330     1.3390     1.9430 h1         1 PFJ       0.038033
     45 H17          5.8400    -1.3210     4.8410 h1         1 PFJ       0.073700
     46 H30          4.6350    -5.3820     5.0050 ha         1 PFJ       0.150000
     47 H29          4.2430    -7.3760     6.4090 ha         1 PFJ       0.142000
     48 H28          3.2260    -7.1190     8.6530 ha         1 PFJ       0.142000
     49 H27          2.6120    -4.8720     9.4700 ha         1 PFJ       0.150000
     50 H22          2.8960    -0.5790     7.7250 h4         1 PFJ       0.041100
     51 O13         -0.7710     0.0010     3.5820 os         1 PFJ      -0.314900
@<TRIPOS>BOND
     1     1    16 ar
     2     1    15 ar
     3     1    30 1
     4     2     3 ar
     5     2    19 1
     6     2    13 ar
     7     3    12 ar
     8     3    15 ar
     9     4    14 ar
    10     4    13 ar
    11     4    31 1
    12     5    22 ar
    13     5    29 ar
    14     5    21 1
    15     6    20 1
    16     6     8 1
    17     6    32 1
    18     6    33 1
    19     7    20 1
    20     7    19 1
    21     7    34 1
    22     7    35 1
    23     8    19 1
    24     8    36 1
    25     8    37 1
    26     9    27 ar
    27     9    23 ar
    28     9    28 ar
    29    10    51 1
    30    10    38 1
    31    10    39 1
    32    10    40 1
    33    51    11 1
    34    11    16 ar
    35    11    12 ar
    36    12    41 1
    37    14    15 ar
    38    16    17 1
    39    17    18 1
    40    18    42 1
    41    18    43 1
    42    18    44 1
    43    20    21 1
    44    20    45 1
    45    22    23 ar
    46    23    24 ar
    47    24    25 ar
    48    24    46 1
    49    25    26 ar
    50    25    47 1
    51    26    27 ar
    52    26    48 1
    53    27    49 1
    54    28    29 ar
    55    29    50 1
@<TRIPOS>SUBSTRUCTURE
     1 PFJ         1 TEMP              0 ****  ****    0 ROOT
