@<TRIPOS>MOLECULE
PFK
   42    45     1     0     0
SMALL
bcc


@<TRIPOS>ATOM
      1 C1         -0.4130    0.1850    0.0500 ca        1 PFK     -0.127000
      2 C2          0.6350   -0.7650    0.0210 ca        1 PFK     -0.121000
      3 C3          1.3560   -1.0570    1.1520 ca        1 PFK     -0.166300
      4 C4          1.0570   -0.3980    2.3890 ca        1 PFK      0.403600
      5 C5         -0.0030    0.5600    2.4080 ca        1 PFK     -0.150300
      6 C6         -0.7250    0.8350    1.2200 ca        1 PFK     -0.110000
      7 N7          1.7920   -0.7020    3.5180 nb        1 PFK     -0.668000
      8 C8          1.4930   -0.0770    4.6520 ca        1 PFK      0.430600
      9 C9          0.4410    0.9010    4.7550 ca        1 PFK     -0.249300
     10 C10        -0.2930    1.2100    3.6420 ca        1 PFK     -0.076000
     11 C11         2.2460   -0.3540    5.9200 c3        1 PFK     -0.139700
     12 C12         3.3410   -1.3960    5.7690 c3        1 PFK      0.133400
     13 O13         3.9230   -1.5080    7.0810 os        1 PFK     -0.314900
     14 C14         4.9540   -2.4080    7.2020 ca        1 PFK      0.149100
     15 C15         5.4540   -3.1870    6.1830 ca        1 PFK     -0.250300
     16 C16         6.5340   -4.0890    6.4390 ca        1 PFK      0.426600
     17 C17         7.0720   -4.1600    7.7600 ca        1 PFK     -0.265600
     18 C18         6.5460   -3.3530    8.7960 ca        1 PFK     -0.168000
     19 C19         5.5070   -2.4910    8.5330 ca        1 PFK      0.114100
     20 O20         4.9090   -1.6550    9.4510 os        1 PFK     -0.300900
     21 C21         5.4310   -1.7120   10.7750 c3        1 PFK      0.107700
     22 N22         7.0460   -4.8770    5.4230 nb        1 PFK     -0.679000
     23 C23         8.0520   -5.6880    5.7530 ca        1 PFK      0.626900
     24 N24         8.6470   -5.8360    6.9960 nb        1 PFK     -0.699000
     25 C25         8.1540   -5.0800    7.9660 ca        1 PFK      0.452200
     26 H1         -0.9710    0.3950   -0.8740 ha        1 PFK      0.136000
     27 H2          0.8660   -1.2720   -0.9280 ha        1 PFK      0.137000
     28 H3          2.1710   -1.7970    1.1250 ha        1 PFK      0.151000
     29 H6         -1.5380    1.5760    1.2550 ha        1 PFK      0.134000
     30 H9          0.2510    1.3770    5.7260 ha        1 PFK      0.145000
     31 H10        -1.1060    1.9510    3.6770 ha        1 PFK      0.140000
     32 H11         2.7000    0.6090    6.2820 hc        1 PFK      0.073700
     33 H11A        1.5150   -0.6960    6.7010 hc        1 PFK      0.073700
     34 H12         4.1260   -1.0660    5.0400 h1        1 PFK      0.059700
     35 H12A        2.9230   -2.3900    5.4610 h1        1 PFK      0.059700
     36 H15         5.0410   -3.1340    5.1630 ha        1 PFK      0.168000
     37 H18         6.9850   -3.4340    9.8020 ha        1 PFK      0.145000
     38 H21         5.3030   -2.7340   11.2070 h1        1 PFK      0.047033
     39 H21A        4.8060   -0.9670   11.3290 h1        1 PFK      0.047033
     40 H21B        6.5070   -1.4120   10.7880 h1        1 PFK      0.047033
     41 H23         8.4720   -6.3260    4.9470 h5        1 PFK      0.053100
     42 H25         8.6100   -5.1780    8.9690 h4        1 PFK      0.025100
@<TRIPOS>BOND
     1    1    2 ar  
     2    1    6 ar  
     3    1   26 1   
     4    2    3 ar  
     5    2   27 1   
     6    3    4 ar  
     7    3   28 1   
     8    4    5 ar  
     9    4    7 ar  
    10    5    6 ar  
    11    5   10 ar  
    12    6   29 1   
    13    7    8 ar  
    14    8    9 ar  
    15    8   11 1   
    16    9   10 ar  
    17    9   30 1   
    18   10   31 1   
    19   11   12 1   
    20   11   32 1   
    21   11   33 1   
    22   12   13 1   
    23   12   34 1   
    24   12   35 1   
    25   13   14 1   
    26   14   15 ar  
    27   14   19 ar  
    28   15   16 ar  
    29   15   36 1   
    30   16   17 ar  
    31   16   22 ar  
    32   17   18 ar  
    33   17   25 ar  
    34   18   19 ar  
    35   18   37 1   
    36   19   20 1   
    37   20   21 1   
    38   21   38 1   
    39   21   39 1   
    40   21   40 1   
    41   22   23 ar  
    42   23   24 ar  
    43   23   41 1   
    44   24   25 ar  
    45   25   42 1   
@<TRIPOS>SUBSTRUCTURE
     1 PFK         1 TEMP              0 ****  ****    0 ROOT
