@<TRIPOS>MOLECULE
molecule
   42    45     1     0     0
SMALL
bcc


@<TRIPOS>ATOM
      1 C1           0.0000     0.0000     0.0000 ca         1 PFK      -0.125000
      2 C2           1.3930     0.0000     0.0000 ca         1 PFK      -0.117000
      3 C3           2.0960     0.0000     1.1670 ca         1 PFK      -0.164300
      4 C4           1.4100    -0.0010     2.3930 ca         1 PFK       0.423600
      5 C5          -0.0070    -0.0020     2.3910 ca         1 PFK      -0.156300
      6 C6          -0.6990    -0.0010     1.1690 ca         1 PFK      -0.110000
      7 N7           2.0730    -0.0020     3.5540 nb         1 PFK      -0.685000
      8 C8           1.4380    -0.0030     4.7010 ca         1 PFK       0.435600
      9 C9           0.0460    -0.0030     4.7690 ca         1 PFK      -0.247300
     10 C10         -0.6920    -0.0020     3.6200 ca         1 PFK      -0.074000
     11 C11          2.2340    -0.0050     5.9800 c3         1 PFK      -0.124700
     12 C12          3.2080    -1.1860     5.9740 c3         1 PFK       0.137400
     13 O13          3.9620    -1.1880     7.1870 os         1 PFK      -0.315900
     14 C14          4.8770    -2.1790     7.3430 ca         1 PFK       0.165100
     15 C15          5.0390    -3.1080     6.3540 ca         1 PFK      -0.264300
     16 C16          5.9820    -4.1310     6.5120 ca         1 PFK       0.456600
     17 C17          6.7580    -4.1870     7.7010 ca         1 PFK      -0.282600
     18 C18          6.5720    -3.2190     8.6990 ca         1 PFK      -0.186000
     19 C19          5.6490    -2.2310     8.5140 ca         1 PFK       0.131100
     20 O20          5.4720    -1.2880     9.4770 os         1 PFK      -0.311900
     21 C21          6.2860    -1.3940    10.6470 c3         1 PFK       0.125700
     22 N22          6.1770    -5.0660     5.5740 nb         1 PFK      -0.724000
     23 C23          7.0700    -6.0100     5.7570 ca         1 PFK       0.674900
     24 N24          7.8120    -6.0950     6.8500 nb         1 PFK      -0.747000
     25 C25          7.6970    -5.2230     7.8340 ca         1 PFK       0.479200
     26 H1          -0.5350     0.0000    -0.9420 ha         1 PFK       0.132000
     27 H2           1.9260     0.0010    -0.9430 ha         1 PFK       0.134000
     28 H3           3.1790    -0.0000     1.1490 ha         1 PFK       0.150000
     29 H6          -1.7820    -0.0010     1.1560 ha         1 PFK       0.134000
     30 H9          -0.4500    -0.0050     5.7320 ha         1 PFK       0.140000
     31 H10         -1.7750    -0.0020     3.6540 ha         1 PFK       0.141000
     32 H11          1.5620    -0.0950     6.8240 hc         1 PFK       0.069700
     33 H11A         2.7910     0.9210     6.0600 hc         1 PFK       0.069700
     34 H12          3.8810    -1.0950     5.1310 h1         1 PFK       0.051700
     35 H12A         2.6510    -2.1120     5.8940 h1         1 PFK       0.051700
     36 H15          4.3650    -3.1180     5.5050 ha         1 PFK       0.167000
     37 H18          7.1630    -3.2500     9.6070 ha         1 PFK       0.147000
     38 H21          7.3300    -1.3320    10.3660 h1         1 PFK       0.043367
     39 H21A         6.0980    -2.3440    11.1320 h1         1 PFK       0.043367
     40 H21B         6.0470    -0.5870    11.3280 h1         1 PFK       0.043367
     41 H23          7.2050    -6.7520     4.9800 h5         1 PFK       0.057100
     42 H25          8.3110    -5.3050     8.7220 h4         1 PFK       0.029100
@<TRIPOS>BOND
     1     1     2 ar
     2     1     6 ar
     3     1    26 1
     4     2     3 ar
     5     2    27 1
     6     3     4 ar
     7     3    28 1
     8     5     4 ar
     9     4     7 ar
    10     6     5 ar
    11     5    10 ar
    12     6    29 1
    13     7     8 ar
    14     9     8 ar
    15     8    11 1
    16    10     9 ar
    17     9    30 1
    18    10    31 1
    19    11    12 1
    20    11    32 1
    21    11    33 1
    22    12    13 1
    23    12    34 1
    24    12    35 1
    25    13    14 1
    26    14    19 ar
    27    14    15 ar
    28    15    16 ar
    29    15    36 1
    30    16    17 ar
    31    16    22 ar
    32    18    17 ar
    33    17    25 ar
    34    19    18 ar
    35    18    37 1
    36    20    19 1
    37    20    21 1
    38    21    38 1
    39    21    39 1
    40    21    40 1
    41    22    23 ar
    42    23    24 ar
    43    23    41 1
    44    25    24 ar
    45    25    42 1
@<TRIPOS>SUBSTRUCTURE
     1 PFK         1 TEMP              0 ****  ****    0 ROOT
