@<TRIPOS>MOLECULE
PFL
   31    31     1     0     0
SMALL
bcc


@<TRIPOS>ATOM
      1 O1          0.0570   -0.2000    0.0680 oh        1 PFL     -0.506100
      2 C1          1.4230   -0.0110    0.0060 ca        1 PFL      0.126100
      3 C2          2.0970    0.0130    1.2460 ca        1 PFL     -0.120300
      4 C6          2.1130    0.1750   -1.2100 ca        1 PFL     -0.120300
      5 C3          3.4790    0.2160    1.2460 ca        1 PFL     -0.098000
      6 C7          1.3530   -0.1700    2.5320 c3        1 PFL     -0.021400
      7 C4          4.1760    0.3830    0.0520 ca        1 PFL     -0.161000
      8 C5          3.4970    0.3610   -1.1630 ca        1 PFL     -0.098000
      9 C10         1.3760    0.1750   -2.5130 c3        1 PFL     -0.021400
     10 C8          1.8620   -1.3850    3.2860 c3        1 PFL     -0.088350
     11 C9          1.4560    1.0720    3.3970 c3        1 PFL     -0.088350
     12 C11         2.0840    0.9670   -3.5950 c3        1 PFL     -0.088350
     13 C12         1.1290   -1.2460   -2.9900 c3        1 PFL     -0.088350
     14 HO1        -0.2600   -0.4400   -0.8140 ho        1 PFL      0.421000
     15 HC3         4.0190    0.2400    2.2050 ha        1 PFL      0.134000
     16 HC7         0.2610   -0.3400    2.2990 hc        1 PFL      0.059200
     17 HC4         5.2650    0.5330    0.0690 ha        1 PFL      0.132000
     18 HC5         4.0640    0.4950   -2.0970 ha        1 PFL      0.134000
     19 H10         0.3760    0.6770   -2.3490 hc        1 PFL      0.059200
     20 H81         2.9360   -1.2580    3.5650 hc        1 PFL      0.036450
     21 H82         1.2680   -1.5280    4.2200 hc        1 PFL      0.036450
     22 H83         1.7660   -2.3010    2.6560 hc        1 PFL      0.036450
     23 H91         1.0480    1.9580    2.8540 hc        1 PFL      0.036450
     24 H92         2.5190    1.2800    3.6680 hc        1 PFL      0.036450
     25 H93         0.8710    0.9300    4.3380 hc        1 PFL      0.036450
     26 H111        2.3950    1.9670   -3.2080 hc        1 PFL      0.036450
     27 H112        1.3960    1.1170   -4.4620 hc        1 PFL      0.036450
     28 H113        2.9900    0.4260   -3.9620 hc        1 PFL      0.036450
     29 H121        2.0970   -1.7610   -3.1970 hc        1 PFL      0.036450
     30 H122        0.5250   -1.2340   -3.9290 hc        1 PFL      0.036450
     31 H123        0.5780   -1.8330   -2.2170 hc        1 PFL      0.036450
@<TRIPOS>BOND
     1    1    2 1   
     2    1   14 1   
     3    2    3 ar  
     4    2    4 ar  
     5    3    5 ar  
     6    3    6 1   
     7    4    8 ar  
     8    4    9 1   
     9    5    7 ar  
    10    5   15 1   
    11    6   10 1   
    12    6   11 1   
    13    6   16 1   
    14    7    8 ar  
    15    7   17 1   
    16    8   18 1   
    17    9   12 1   
    18    9   13 1   
    19    9   19 1   
    20   10   20 1   
    21   10   21 1   
    22   10   22 1   
    23   11   23 1   
    24   11   24 1   
    25   11   25 1   
    26   12   26 1   
    27   12   27 1   
    28   12   28 1   
    29   13   29 1   
    30   13   30 1   
    31   13   31 1   
@<TRIPOS>SUBSTRUCTURE
     1 PFL         1 TEMP              0 ****  ****    0 ROOT
