@<TRIPOS>MOLECULE
molecule
   31    31     1     0     0
SMALL
bcc


@<TRIPOS>ATOM
      1 O1           0.0000     0.0000     0.0000 oh         1 PFL      -0.520100
      2 C1           1.3590     0.0000     0.0000 ca         1 PFL       0.104100
      3 C2           2.0530     0.0000     1.2000 ca         1 PFL      -0.095800
      4 C6           2.0530     0.0110    -1.2000 ca         1 PFL      -0.095800
      5 C3           3.4340     0.0010     1.1980 ca         1 PFL      -0.117000
      6 C7           1.3030    -0.0050     2.5070 c3         1 PFL      -0.031400
      7 C4           4.1250     0.0060     0.0000 ca         1 PFL      -0.133000
      8 C5           3.4350     0.0110    -1.1980 ca         1 PFL      -0.117000
      9 C10          1.3030     0.0170    -2.5070 c3         1 PFL      -0.031400
     10 C8           1.6730    -1.2580     3.3030 c3         1 PFL      -0.084100
     11 C9           1.6730     1.2400     3.3140 c3         1 PFL      -0.084100
     12 C11          1.6740     1.2700    -3.3020 c3         1 PFL      -0.084100
     13 C12          1.6730    -1.2280    -3.3130 c3         1 PFL      -0.084100
     14 HO1         -0.3140     0.8890     0.0040 ho         1 PFL       0.416000
     15 HC3          3.9770    -0.0010     2.1350 ha         1 PFL       0.134000
     16 HC7          0.2380    -0.0040     2.3110 hc         1 PFL       0.066700
     17 HC4          5.2080     0.0070     0.0000 ha         1 PFL       0.130000
     18 HC5          3.9770     0.0170    -2.1350 ha         1 PFL       0.134000
     19 H10          0.2380     0.0160    -2.3110 hc         1 PFL       0.066700
     20 H81          2.6910    -1.1690     3.6640 hc         1 PFL       0.035700
     21 H82          0.9990    -1.3630     4.1440 hc         1 PFL       0.035700
     22 H83          1.5910    -2.1290     2.6630 hc         1 PFL       0.035700
     23 H91          0.9230     1.4120     4.0770 hc         1 PFL       0.035700
     24 H92          1.7210     2.0970     2.6540 hc         1 PFL       0.035700
     25 H93          2.6380     1.0920     3.7840 hc         1 PFL       0.035700
     26 H111         1.7220     2.1210    -2.6340 hc         1 PFL       0.035700
     27 H112         0.9240     1.4500    -4.0630 hc         1 PFL       0.035700
     28 H113         2.6390     1.1260    -3.7730 hc         1 PFL       0.035700
     29 H121         2.6910    -1.1350    -3.6740 hc         1 PFL       0.035700
     30 H122         0.9990    -1.3250    -4.1560 hc         1 PFL       0.035700
     31 H123         1.5920    -2.1040    -2.6820 hc         1 PFL       0.035700
@<TRIPOS>BOND
     1     1     2 1
     2     1    14 1
     3     2     3 ar
     4     2     4 ar
     5     3     5 ar
     6     3     6 1
     7     4     8 ar
     8     4     9 1
     9     5     7 ar
    10     5    15 1
    11     6    10 1
    12     6    11 1
    13     6    16 1
    14     7     8 ar
    15     7    17 1
    16     8    18 1
    17     9    12 1
    18     9    13 1
    19     9    19 1
    20    10    20 1
    21    10    21 1
    22    10    22 1
    23    11    23 1
    24    11    24 1
    25    11    25 1
    26    12    26 1
    27    12    27 1
    28    12    28 1
    29    13    29 1
    30    13    30 1
    31    13    31 1
@<TRIPOS>SUBSTRUCTURE
     1 PFL         1 TEMP              0 ****  ****    0 ROOT
