@<TRIPOS>MOLECULE
molecule
   42    42     1     0     0
SMALL
bcc


@<TRIPOS>ATOM
      1 N            0.0000     0.0000     0.0000 nz         1 PFM      -0.783600
      2 CA           1.4690     0.0000     0.0000 c3         1 PFM       0.028500
      3 C            1.9730     0.0000     1.4210 c          1 PFM       0.864600
      4 OA           3.1450    -0.5820     1.7170 o          1 PFM      -0.798800
      5 OB           1.3190     0.5220     2.2930 o          1 PFM      -0.798800
      6 CB           1.9780     1.2490    -0.7210 c3         1 PFM      -0.050200
      7 CG           1.4750     1.2500    -2.1410 c2         1 PFM      -0.654200
      8 CD           0.7970     2.3020    -2.6100 ce         1 PFM       0.314100
      9 OE           0.6550     3.4150    -1.8440 oh         1 PFM      -0.579100
     10 C4B          0.2050     2.2550    -3.9550 ce         1 PFM      -0.203000
     11 C4A         -0.4760     3.3140    -4.4250 cf         1 PFM       0.009800
     12 C4          -1.0680     3.2680    -5.7720 ca         1 PFM      -0.117800
     13 C3          -0.2660     3.0690    -6.9100 ca         1 PFM      -0.026200
     14 O3           1.0790     2.9200    -6.7890 oh         1 PFM      -0.525100
     15 C2          -0.8690     3.0390    -8.1560 ca         1 PFM       0.363600
     16 C2A         -0.0230     2.8330    -9.3860 c3         1 PFM      -0.126400
     17 N1          -2.1750     3.1820    -8.2780 nb         1 PFM      -0.698000
     18 C6          -2.9620     3.3650    -7.2360 ca         1 PFM       0.443200
     19 C5          -2.4490     3.4150    -5.9570 ca         1 PFM      -0.121600
     20 C5A         -3.3610     3.6250    -4.7770 c3         1 PFM       0.184700
     21 P           -5.6250     3.9640    -3.9250 p5         1 PFM       1.140900
     22 OP1         -7.1660     4.1080    -4.3670 o          1 PFM      -0.890500
     23 OP2         -5.4640     2.7030    -2.9380 o          1 PFM      -0.890500
     24 OP3         -5.1960     5.1950    -3.2250 o          1 PFM      -0.890500
     25 OP4         -4.7100     3.7440    -5.2320 os         1 PFM      -0.534200
     26 HN1         -0.3340    -0.7040     0.6280 hn         1 PFM       0.447467
     27 HN2         -0.3340    -0.1920    -0.9240 hn         1 PFM       0.447467
     28 HA           1.8310    -0.8840    -0.5110 hx         1 PFM       0.108700
     29 HB1          1.6170     2.1330    -0.2090 hc         1 PFM       0.059200
     30 HB2          3.0610     1.2500    -0.7220 hc         1 PFM       0.059200
     31 HG           2.3990     1.7400    -1.8600 ha         1 PFM       0.280000
     32 HOE          1.2480     4.0830    -2.1450 ho         1 PFM       0.436000
     33 H4B          0.3190     1.3680    -4.5660 ha         1 PFM       0.176000
     34 H4A         -0.5890     4.2010    -3.8140 ha         1 PFM       0.148000
     35 HO3          1.4960     3.7640    -6.8480 ho         1 PFM       0.401000
     36 H2A1         0.5590     1.9250    -9.2770 hc         1 PFM       0.037367
     37 H2A2        -0.6640     2.7480   -10.2550 hc         1 PFM       0.037367
     38 H2A3         0.6440     3.6770    -9.5110 hc         1 PFM       0.037367
     39 H6          -4.0290     3.4780    -7.3880 h4         1 PFM       0.082100
     40 H5A1        -3.0750     4.5300    -4.2550 h1         1 PFM       0.067700
     41 H5A2        -3.2800     2.7790    -4.1040 h1         1 PFM       0.067700
     42 HN3         -0.3340     0.8980     0.2910 hn         1 PFM       0.447467
@<TRIPOS>BOND
     1     1     2 1
     2     1    26 1
     3     1    27 1
     4     2     3 1
     5     2     6 1
     6     2    28 1
     7     3     4 1
     8     3     5 1
     9     6     7 1
    10     6    29 1
    11     6    30 1
    12     7     8 2
    13     7    31 1
    14     8     9 1
    15     8    10 1
    16     9    32 1
    17    10    11 2
    18    10    33 1
    19    11    12 1
    20    11    34 1
    21    12    13 ar
    22    12    19 ar
    23    13    14 1
    24    13    15 ar
    25    14    35 1
    26    15    16 1
    27    15    17 ar
    28    16    36 1
    29    16    37 1
    30    16    38 1
    31    17    18 ar
    32    18    19 ar
    33    18    39 1
    34    19    20 1
    35    20    25 1
    36    20    40 1
    37    20    41 1
    38    21    22 1
    39    21    23 1
    40    21    24 1
    41    21    25 1
    42    42     1 1
@<TRIPOS>SUBSTRUCTURE
     1 PFM         1 TEMP              0 ****  ****    0 ROOT
