@<TRIPOS>MOLECULE
PFM
   42    42     1     0     0
SMALL
bcc


@<TRIPOS>ATOM
      1 N          -0.4450    1.3730   -0.1610 n4        1 PFM     -0.833600
      2 CA          0.6220    0.3280   -0.1200 c3        1 PFM     -0.012500
      3 C           1.0360   -0.0030    1.3510 c         1 PFM      0.910600
      4 OA          1.9610   -0.8370    1.5140 o         1 PFM     -0.828300
      5 OB          0.3850    0.5560    2.2830 o         1 PFM     -0.828300
      6 CB          1.8310    0.7460   -0.9690 c3        1 PFM      0.031800
      7 CG          1.4580    1.0110   -2.3670 c2        1 PFM     -0.535200
      8 CD          0.8780    2.1960   -2.7710 ce        1 PFM      0.504500
      9 OE          0.6220    3.2070   -2.0180 o         1 PFM     -0.855300
     10 C4B         0.4360    2.2640   -4.1890 ce        1 PFM     -0.149200
     11 C4A        -0.3580    3.2520   -4.6270 cf        1 PFM     -0.171200
     12 C4         -0.9790    3.3150   -5.9380 ca        1 PFM     -0.046800
     13 C3         -0.2400    3.1520   -7.1310 ca        1 PFM     -0.000200
     14 O3          1.1200    2.9420   -7.1580 oh        1 PFM     -0.520100
     15 C2         -0.8870    3.2160   -8.3940 ca        1 PFM      0.350600
     16 C2A        -0.0580    3.0280   -9.6210 c3        1 PFM     -0.122400
     17 N1         -2.2190    3.4300   -8.4940 nb        1 PFM     -0.679000
     18 C6         -2.9140    3.5940   -7.3570 ca        1 PFM      0.355200
     19 C5         -2.3580    3.5580   -6.0600 ca        1 PFM     -0.138600
     20 C5A        -3.2420    3.8250   -4.8760 c3        1 PFM      0.238700
     21 P          -3.8580    2.8950   -2.5330 p5        1 PFM      1.437800
     22 OP1        -4.8280    1.8590   -2.1410 o         1 PFM     -0.838000
     23 OP2        -2.4080    2.5220   -1.8860 oh        1 PFM     -0.811400
     24 OP3        -4.0380    4.3550   -2.3840 o         1 PFM     -0.838000
     25 OP4        -3.4670    2.6710   -4.1330 os        1 PFM     -0.573200
     26 HN1        -0.0290    2.2880   -0.4100 hn        1 PFM      0.459467
     27 HN2        -1.1480    1.1610   -0.8750 hn        1 PFM      0.459467
     28 HA          0.1800   -0.6120   -0.5570 hx        1 PFM      0.062700
     29 HB1         2.5700   -0.0950   -0.8950 hc        1 PFM      0.039700
     30 HB2         2.3020    1.6550   -0.5040 hc        1 PFM      0.039700
     31 HG          1.6330    0.2060   -3.0860 ha        1 PFM      0.088000
     32 HOE        -1.6740    3.0430   -2.2100 ho        1 PFM      0.458000
     33 H4B         0.7270    1.4200   -4.8350 ha        1 PFM      0.102000
     34 H4A        -0.6410    4.0640   -3.9280 ha        1 PFM      0.160000
     35 HO3         1.4450    2.9870   -6.2430 ho        1 PFM      0.438000
     36 H2A1        0.3610    1.9910   -9.6230 hc        1 PFM      0.036367
     37 H2A2       -0.6430    3.1850  -10.5590 hc        1 PFM      0.036367
     38 H2A3        0.7970    3.7480   -9.5990 hc        1 PFM      0.036367
     39 H6         -3.9980    3.7600   -7.4850 h4        1 PFM      0.010100
     40 H5A1       -2.7700    4.6160   -4.2220 h1        1 PFM      0.032200
     41 H5A2       -4.2320    4.2230   -5.2470 h1        1 PFM      0.032200
     42 HN3        -0.8790    1.4330    0.7660 hn        1 PFM      0.459467
@<TRIPOS>BOND
     1    1    2 1   
     2    1   26 1   
     3    1   27 1   
     4    1   42 1   
     5    2    3 1   
     6    2    6 1   
     7    2   28 1   
     8    3    4 1   
     9    3    5 1   
    10    6    7 1   
    11    6   29 1   
    12    6   30 1   
    13    7    8 2   
    14    7   31 1   
    15    8    9 1   
    16    8   10 1   
    17   10   11 2   
    18   10   33 1   
    19   11   12 1   
    20   11   34 1   
    21   12   13 ar  
    22   12   19 ar  
    23   13   14 1   
    24   13   15 ar  
    25   14   35 1   
    26   15   16 1   
    27   15   17 ar  
    28   16   36 1   
    29   16   37 1   
    30   16   38 1   
    31   17   18 ar  
    32   18   19 ar  
    33   18   39 1   
    34   19   20 1   
    35   20   25 1   
    36   20   40 1   
    37   20   41 1   
    38   21   22 1   
    39   21   23 1   
    40   21   24 1   
    41   21   25 1   
    42   23   32 1   
@<TRIPOS>SUBSTRUCTURE
     1 PFM         1 TEMP              0 ****  ****    0 ROOT
