@<TRIPOS>MOLECULE
PFN
   31    32     1     0     0
SMALL
bcc


@<TRIPOS>ATOM
      1 CAL        -0.6190   -0.4930    0.2230 ca        1 PFN     -0.178500
      2 CAJ         0.2770    0.4020   -0.3560 ca        1 PFN     -0.104500
      3 CAP         1.1510    1.1440    0.4360 ca        1 PFN     -0.180000
      4 CAI         1.1310    0.9930    1.8240 ca        1 PFN     -0.104500
      5 CAK         0.2460    0.1050    2.4260 ca        1 PFN     -0.178500
      6 CAR        -0.6320   -0.6410    1.6170 ca        1 PFN      0.141100
      7 OAN        -1.4680   -1.5010    2.3050 os        1 PFN     -0.256200
      8 CAO        -6.9520   -2.7020    0.0590 c         1 PFN      0.923600
      9 OAB        -7.0620   -3.8570   -0.4420 o         1 PFN     -0.833300
     10 OAA        -7.8220   -2.1490    0.7830 o         1 PFN     -0.833300
     11 CAM        -5.5290   -1.7530   -1.7630 c3        1 PFN     -0.062100
     12 CAH        -2.1050   -3.6320    1.4130 ca        1 PFN     -0.158000
     13 CAF        -3.0520   -4.4250    0.7640 ca        1 PFN     -0.139000
     14 C2         -2.3550   -2.2620    1.5290 ca        1 PFN      0.053100
     15 CAD        -4.2060   -3.8600    0.2290 ca        1 PFN     -0.116000
     16 C13        -5.6690   -1.8730   -0.2600 c3        1 PFN     -0.170400
     17 CAE        -4.4450   -2.4790    0.3360 ca        1 PFN     -0.004300
     18 CAG        -3.5110   -1.6760    1.0010 ca        1 PFN     -0.156000
     19 HAK         0.2160   -0.0220    3.5170 ha        1 PFN      0.151000
     20 HAI         1.8190    1.5810    2.4490 ha        1 PFN      0.122500
     21 HAP         1.8540    1.8480   -0.0290 ha        1 PFN      0.120000
     22 HAJ         0.2890    0.5220   -1.4500 ha        1 PFN      0.122500
     23 HAL        -1.3170   -1.0760   -0.3970 ha        1 PFN      0.151000
     24 H13        -5.8220   -0.8480    0.1790 hc        1 PFN      0.048700
     25 HAM1       -5.4830   -2.7710   -2.2200 hc        1 PFN      0.021700
     26 HAM2       -4.6090   -1.1850   -2.0410 hc        1 PFN      0.021700
     27 HAM3       -6.4180   -1.2200   -2.1780 hc        1 PFN      0.021700
     28 HAG        -3.6820   -0.5970    1.1190 ha        1 PFN      0.138000
     29 HAD        -4.9780   -4.4820   -0.2650 ha        1 PFN      0.194000
     30 HAF        -2.8850   -5.5080    0.6800 ha        1 PFN      0.119000
     31 HAH        -1.1920   -4.0660    1.8410 ha        1 PFN      0.126000
@<TRIPOS>BOND
     1    1    2 ar  
     2    1    6 ar  
     3    1   23 1   
     4    2    3 ar  
     5    2   22 1   
     6    3    4 ar  
     7    3   21 1   
     8    4    5 ar  
     9    4   20 1   
    10    5    6 ar  
    11    5   19 1   
    12    6    7 1   
    13    7   14 1   
    14    8    9 1   
    15    8   10 1   
    16    8   16 1   
    17   11   16 1   
    18   11   25 1   
    19   11   26 1   
    20   11   27 1   
    21   12   13 ar  
    22   12   14 ar  
    23   12   31 1   
    24   13   15 ar  
    25   13   30 1   
    26   14   18 ar  
    27   15   17 ar  
    28   15   29 1   
    29   16   17 1   
    30   16   24 1   
    31   17   18 ar  
    32   18   28 1   
@<TRIPOS>SUBSTRUCTURE
     1 PFN         1 TEMP              0 ****  ****    0 ROOT
