@<TRIPOS>MOLECULE
molecule
   31    32     1     0     0
SMALL
bcc


@<TRIPOS>ATOM
      1 CAL          0.0000     0.0000     0.0000 ca         1 PFN      -0.146500
      2 CAJ          1.3810     0.0000     0.0000 ca         1 PFN      -0.122500
      3 CAP          2.0730     0.0000     1.1980 ca         1 PFN      -0.151000
      4 CAI          1.3850     0.0010     2.3960 ca         1 PFN      -0.122500
      5 CAK          0.0030     0.0020     2.4010 ca         1 PFN      -0.146500
      6 CAR         -0.6930     0.0010     1.2020 ca         1 PFN       0.133100
      7 OAN         -2.0520     0.0080     1.2040 os         1 PFN      -0.260200
      8 CAO         -6.8220    -3.2910     0.8740 c          1 PFN       0.895600
      9 OAB         -6.0980    -3.9930     1.5410 o          1 PFN      -0.840800
     10 OAA         -8.1500    -3.4740     0.9070 o          1 PFN      -0.840800
     11 CAM         -6.6050    -2.4710    -1.4560 c3         1 PFN      -0.059100
     12 CAH         -1.9740    -2.2320     0.4070 ca         1 PFN      -0.234000
     13 CAF         -2.6320    -3.3550    -0.0570 ca         1 PFN      -0.112000
     14 C2          -2.6970    -1.0970     0.7420 ca         1 PFN       0.107100
     15 CAD         -4.0090    -3.3470    -0.1870 ca         1 PFN      -0.110000
     16 C13         -6.2310    -2.2120     0.0040 c3         1 PFN      -0.142400
     17 CAE         -4.7310    -2.2170     0.1470 ca         1 PFN       0.014700
     18 CAG         -4.0770    -1.0890     0.6070 ca         1 PFN      -0.157000
     19 HAK         -0.5360     0.0030     3.3410 ha         1 PFN       0.145500
     20 HAI          1.9290     0.0020     3.3330 ha         1 PFN       0.124500
     21 HAP          3.1570    -0.0000     1.1960 ha         1 PFN       0.120000
     22 HAJ          1.9230    -0.0010    -0.9380 ha         1 PFN       0.124500
     23 HAL         -0.5420    -0.0000    -0.9380 ha         1 PFN       0.145500
     24 H13         -6.6190    -1.2480     0.3110 hc         1 PFN       0.048700
     25 HAM1        -7.6410    -2.1970    -1.6170 hc         1 PFN       0.022700
     26 HAM2        -6.4700    -3.5210    -1.6830 hc         1 PFN       0.022700
     27 HAM3        -5.9700    -1.8770    -2.1020 hc         1 PFN       0.022700
     28 HAG         -4.6430    -0.2040     0.8690 ha         1 PFN       0.134000
     29 HAD         -4.5220    -4.2290    -0.5510 ha         1 PFN       0.147000
     30 HAF         -2.0680    -4.2420    -0.3200 ha         1 PFN       0.113000
     31 HAH         -0.8960    -2.2390     0.5080 ha         1 PFN       0.122000
@<TRIPOS>BOND
     1     5     4 ar
     2     5     6 ar
     3     4     3 ar
     4     3     2 ar
     5     2     1 ar
     6     1     6 ar
     7     6     7 1
     8     7    14 1
     9     8     9 1
    10     8    10 1
    11     8    16 1
    12    11    16 1
    13    18    17 ar
    14    18    14 ar
    15    17    15 ar
    16    17    16 1
    17    15    13 ar
    18    13    12 ar
    19    12    14 ar
    20     5    19 1
    21     4    20 1
    22     3    21 1
    23     2    22 1
    24     1    23 1
    25    16    24 1
    26    11    25 1
    27    11    26 1
    28    11    27 1
    29    18    28 1
    30    15    29 1
    31    13    30 1
    32    12    31 1
@<TRIPOS>SUBSTRUCTURE
     1 PFN         1 TEMP              0 ****  ****    0 ROOT
