@<TRIPOS>MOLECULE
PFO
   53    57     1     0     0
SMALL
bcc


@<TRIPOS>ATOM
      1 N3          0.1500   -0.1020   -0.0430 n3        1 PFO     -0.732600
      2 C4          4.0440   -4.5380    7.9860 ca        1 PFO     -0.170500
      3 N2          2.0600   -0.5940    5.9220 nc        1 PFO     -0.661000
      4 C7          2.6700   -1.8470    5.7480 cc        1 PFO      0.382800
      5 C6          3.4020   -2.5130    6.8110 ca        1 PFO     -0.116500
      6 C9          1.5090   -0.2780    4.7340 cd        1 PFO      0.404400
      7 C13         1.5950   -0.1900    0.1270 c3        1 PFO      0.166300
      8 C20         2.1680   -4.6900    3.8730 ca        1 PFO     -0.409600
      9 C21         2.6680   -5.8340    3.2240 ca        1 PFO      0.463200
     10 C8          2.4650   -2.2850    4.4140 cd        1 PFO     -0.263100
     11 N5          3.7880   -5.8400    2.4910 nb        1 PFO     -0.741000
     12 C18        -3.5420    1.4780   -1.6580 cc        1 PFO      0.241600
     13 C16        -1.6440    0.2830   -1.6770 cd        1 PFO      0.306600
     14 C19         2.9190   -3.5030    3.7330 ca        1 PFO      0.553800
     15 C1          4.1760   -1.7560    7.7050 ca        1 PFO     -0.088000
     16 C2          4.8860   -2.3740    8.7280 ca        1 PFO     -0.170500
     17 C3          4.8240   -3.7720    8.8710 ca        1 PFO      0.123900
     18 C5          3.3400   -3.9040    6.9690 ca        1 PFO     -0.088000
     19 N1          1.7280   -1.2760    3.7760 na        1 PFO     -0.183900
     20 C10         1.3190   -1.2430    2.3900 c3        1 PFO      0.049000
     21 C11        -0.2000   -1.0670    2.2250 c3        1 PFO     -0.090900
     22 C12        -0.5670   -1.0970    0.7440 c3        1 PFO      0.166300
     23 C14         2.0290   -0.1380    1.5890 c3        1 PFO     -0.090900
     24 C15        -0.2260   -0.1310   -1.4520 c3        1 PFO      0.138500
     25 C17        -2.2640    1.5000   -1.1450 cd        1 PFO     -0.338600
     26 O1         -3.6720    0.3140   -2.4470 os        1 PFO     -0.121100
     27 N4         -2.5460   -0.3700   -2.4380 nc        1 PFO     -0.357300
     28 C22         4.4520   -4.6180    2.3770 ca        1 PFO      0.862900
     29 N6          4.0500   -3.4380    2.9940 nb        1 PFO     -0.734000
     30 N7          5.5610   -4.5570    1.5290 nh        1 PFO     -0.923500
     31 F1          5.5140   -4.3820    9.8650 f         1 PFO     -0.143900
     32 H3          0.9460    0.6350    4.5120 h5        1 PFO      0.065100
     33 H4          2.0560    0.6870   -0.4090 h1        1 PFO      0.041700
     34 H5          2.0110   -1.1330   -0.3380 h1        1 PFO      0.041700
     35 H6          1.2460   -4.7180    4.4630 ha        1 PFO      0.163000
     36 H7          2.1440   -6.8050    3.3000 h4        1 PFO      0.030100
     37 H8         -4.4280    2.1000   -1.6100 h4        1 PFO      0.064100
     38 H9          4.2230   -0.6600    7.5980 ha        1 PFO      0.146500
     39 H10         5.4940   -1.7820    9.4270 ha        1 PFO      0.147000
     40 H11         2.7250   -4.5050    6.2800 ha        1 PFO      0.146500
     41 H12         1.6070   -2.2410    1.9380 h1        1 PFO      0.076700
     42 H13        -0.7490   -1.8950    2.7410 hc        1 PFO      0.062950
     43 H14        -0.5250   -0.0970    2.6830 hc        1 PFO      0.062950
     44 H15        -1.6670   -0.8770    0.6420 h1        1 PFO      0.041700
     45 H16        -0.3890   -2.1430    0.3520 h1        1 PFO      0.041700
     46 H17         1.7880    0.8650    2.0280 hc        1 PFO      0.062950
     47 H18         3.1400   -0.2800    1.6330 hc        1 PFO      0.062950
     48 H19         0.4250    0.6120   -2.0000 h1        1 PFO      0.057700
     49 H20        -0.0460   -1.1490   -1.9130 h1        1 PFO      0.057700
     50 H21        -1.7840    2.2210   -0.4920 ha        1 PFO      0.184000
     51 H22         6.1730   -3.7830    1.6520 hn        1 PFO      0.429800
     52 H23         5.9900   -5.4230    1.2970 hn        1 PFO      0.429800
     53 H2          3.9960   -5.6300    8.1070 ha        1 PFO      0.147000
@<TRIPOS>BOND
     1    1    7 1   
     2    1   22 1   
     3    1   24 1   
     4    2   17 ar  
     5    2   18 ar  
     6    2   53 1   
     7    3    4 1   
     8    3    6 2   
     9    4    5 1   
    10    4   10 2   
    11    5   15 ar  
    12    5   18 ar  
    13    6   19 1   
    14    6   32 1   
    15    7   23 1   
    16    7   33 1   
    17    7   34 1   
    18    8    9 ar  
    19    8   14 ar  
    20    8   35 1   
    21    9   11 ar  
    22    9   36 1   
    23   10   14 1   
    24   10   19 1   
    25   11   28 ar  
    26   12   25 2   
    27   12   26 1   
    28   12   37 1   
    29   13   24 1   
    30   13   25 1   
    31   13   27 2   
    32   14   29 ar  
    33   15   16 ar  
    34   15   38 1   
    35   16   17 ar  
    36   16   39 1   
    37   17   31 1   
    38   18   40 1   
    39   19   20 1   
    40   20   21 1   
    41   20   23 1   
    42   20   41 1   
    43   21   22 1   
    44   21   42 1   
    45   21   43 1   
    46   22   44 1   
    47   22   45 1   
    48   23   46 1   
    49   23   47 1   
    50   24   48 1   
    51   24   49 1   
    52   25   50 1   
    53   26   27 1   
    54   28   29 ar  
    55   28   30 1   
    56   30   51 1   
    57   30   52 1   
@<TRIPOS>SUBSTRUCTURE
     1 PFO         1 TEMP              0 ****  ****    0 ROOT
