@<TRIPOS>MOLECULE
PFP
   50    53     1     0     0
SMALL
bcc


@<TRIPOS>ATOM
      1 CAB        -0.4950    0.0680   -0.1730 c3        1 PFP      0.112700
      2 OAS         0.8950    0.2870    0.0400 os        1 PFP     -0.326900
      3 CAV         1.3320    0.2020    1.3470 ca        1 PFP      0.127100
      4 CAG         2.7180    0.3840    1.5200 ca        1 PFP     -0.183500
      5 CAK         3.2580    0.3200    2.7980 ca        1 PFP     -0.083000
      6 CAF         0.5020   -0.0410    2.4480 ca        1 PFP     -0.183500
      7 CAJ         1.0600   -0.0990    3.7240 ca        1 PFP     -0.083000
      8 CAX         2.4370    0.0770    3.9110 ca        1 PFP     -0.079800
      9 CBA         3.0060    0.0200    5.2430 cc        1 PFP     -0.035400
     10 CBC         2.9710    1.1010    6.2050 ca        1 PFP     -0.385400
     11 CAY         2.4660    2.4380    6.2620 ca        1 PFP      0.733200
     12 NAQ         1.8780    3.0010    5.1450 nh        1 PFP     -0.840900
     13 CAN         1.1740    4.2560    5.2240 c3        1 PFP      0.207800
     14 CAM         0.6960    4.7500    3.8520 c3        1 PFP      0.114400
     15 OAC        -0.2920    3.8420    3.3930 oh        1 PFP     -0.607800
     16 NAO         2.6370    3.1640    7.4240 nb        1 PFP     -0.781000
     17 CAL         3.3060    2.5680    8.4420 ca        1 PFP      0.679900
     18 NAP         3.8470    1.3210    8.5170 nb        1 PFP     -0.709000
     19 CBB         3.6540    0.6210    7.3720 ca        1 PFP      0.612600
     20 OAT         4.0930   -0.6850    7.1630 os        1 PFP     -0.301400
     21 CAZ         3.6810   -1.0300    5.8460 cd        1 PFP      0.103900
     22 CAW         4.0460   -2.3650    5.4400 ca        1 PFP     -0.079800
     23 CAH         4.9490   -3.1200    6.2130 ca        1 PFP     -0.068500
     24 CAD         5.3080   -4.4030    5.8310 ca        1 PFP     -0.186500
     25 CAU         4.7580   -4.9540    4.6560 ca        1 PFP      0.138100
     26 OAR         5.1790   -6.2340    4.3640 os        1 PFP     -0.323900
     27 CAA         4.6420   -6.8200    3.1830 c3        1 PFP      0.112700
     28 CAE         3.8560   -4.2170    3.8800 ca        1 PFP     -0.186500
     29 CAI         3.5050   -2.9290    4.2770 ca        1 PFP     -0.068500
     30 HAB1       -1.1010    0.8440    0.3540 h1        1 PFP      0.045700
     31 HAB2       -0.6070    0.1660   -1.2820 h1        1 PFP      0.045700
     32 HAB3       -0.7910   -0.9550    0.1650 h1        1 PFP      0.045700
     33 HAG         3.3520    0.5750    0.6430 ha        1 PFP      0.147500
     34 HAK         4.3400    0.4620    2.9410 ha        1 PFP      0.146000
     35 HAF        -0.5810   -0.1800    2.3230 ha        1 PFP      0.147500
     36 HAJ         0.4100   -0.2900    4.5910 ha        1 PFP      0.146000
     37 HAQ         1.5550    2.3570    4.4510 hn        1 PFP      0.448800
     38 HAN1        1.8650    5.0380    5.6500 h1        1 PFP      0.063700
     39 HAN2        0.2780    4.1680    5.9040 h1        1 PFP      0.063700
     40 HAM1        0.2470    5.7720    3.9790 h1        1 PFP      0.037200
     41 HAM2        1.5430    4.8060    3.1180 h1        1 PFP      0.037200
     42 HAC        -0.5440    4.1300    2.5080 ho        1 PFP      0.405000
     43 HAL         3.4260    3.1920    9.3540 h5        1 PFP      0.055100
     44 HAH         5.3730   -2.6830    7.1320 ha        1 PFP      0.151500
     45 HAD         6.0130   -4.9990    6.4280 ha        1 PFP      0.147000
     46 HAA1        4.9290   -6.2240    2.2820 h1        1 PFP      0.046033
     47 HAA2        5.1190   -7.8320    3.1550 h1        1 PFP      0.046033
     48 HAA3        3.5310   -6.9090    3.2570 h1        1 PFP      0.046033
     49 HAE         3.4210   -4.6380    2.9630 ha        1 PFP      0.147000
     50 HAI         2.7940   -2.3480    3.6670 ha        1 PFP      0.151500
@<TRIPOS>BOND
     1    1    2 1   
     2    1   30 1   
     3    1   31 1   
     4    1   32 1   
     5    2    3 1   
     6    3    4 ar  
     7    3    6 ar  
     8    4    5 ar  
     9    4   33 1   
    10    5    8 ar  
    11    5   34 1   
    12    6    7 ar  
    13    6   35 1   
    14    7    8 ar  
    15    7   36 1   
    16    8    9 1   
    17    9   10 1   
    18    9   21 2   
    19   10   11 ar  
    20   10   19 ar  
    21   11   12 1   
    22   11   16 ar  
    23   12   13 1   
    24   12   37 1   
    25   13   14 1   
    26   13   38 1   
    27   13   39 1   
    28   14   15 1   
    29   14   40 1   
    30   14   41 1   
    31   15   42 1   
    32   16   17 ar  
    33   17   18 ar  
    34   17   43 1   
    35   18   19 ar  
    36   19   20 1   
    37   20   21 1   
    38   21   22 1   
    39   22   23 ar  
    40   22   29 ar  
    41   23   24 ar  
    42   23   44 1   
    43   24   25 ar  
    44   24   45 1   
    45   25   26 1   
    46   25   28 ar  
    47   26   27 1   
    48   27   46 1   
    49   27   47 1   
    50   27   48 1   
    51   28   29 ar  
    52   28   49 1   
    53   29   50 1   
@<TRIPOS>SUBSTRUCTURE
     1 PFP         1 TEMP              0 ****  ****    0 ROOT
