@<TRIPOS>MOLECULE
PFQ
   42    45     1     0     0
SMALL
bcc


@<TRIPOS>ATOM
      1 C2          0.2720   -0.1580   -0.3340 c1        1 PFQ      0.024000
      2 C10         3.4190    0.0960    2.8370 c2        1 PFQ     -0.126000
      3 C11         4.5900    0.3230    3.5640 c2        1 PFQ      0.122000
      4 C12         5.8810    0.5380    2.8850 c3        1 PFQ     -0.154000
      5 C13         7.0180    0.8090    3.7800 c2        1 PFQ     -0.122000
      6 C14         6.8720    0.8380    5.1290 c2        1 PFQ     -0.156000
      7 C15         5.6090    0.6090    5.7420 c2        1 PFQ     -0.001000
      8 C16         4.4660    0.3510    4.9840 c2        1 PFQ      0.024000
      9 C19         1.2710   -1.4110    5.3210 c3        1 PFQ     -0.107000
     10 C20         1.1330   -1.4090    6.8050 c2        1 PFQ     -0.274000
     11 C21         1.9940   -0.6930    7.5660 c2        1 PFQ     -0.088000
     12 C22         3.1820   -0.1640    6.9680 c1        1 PFQ     -0.277000
     13 N1          1.6120   -0.0680   -0.1970 n2        1 PFQ     -0.233000
     14 C6          2.0630   -0.0230    1.0670 c2        1 PFQ      0.206000
     15 O6          3.4040    0.0890    1.4170 os        1 PFQ     -0.087000
     16 C5          1.2320   -0.0820    2.2720 c2        1 PFQ     -0.337000
     17 C4         -0.1880   -0.0960    2.0800 c2        1 PFQ      0.269000
     18 N3         -0.6040   -0.1660    0.7480 n3        1 PFQ     -0.243000
     19 C17         3.2160    0.0700    5.6270 c2        1 PFQ     -0.272000
     20 C1          2.1270   -0.0560    3.3830 c2        1 PFQ      0.134000
     21 C18         1.9320   -0.1060    4.8430 c3        1 PFQ     -0.050000
     22 C23        -3.2600    0.3240    4.0420 c2        1 PFQ     -0.224000
     23 C8         -2.4390   -0.0930    3.0650 c2        1 PFQ     -0.077000
     24 O24        -0.9150    0.9610    6.0190 oh        1 PFQ     -0.433000
     25 H2         -1.5770   -0.1910    0.5300 hn        1 PFQ      0.259000
     26 H12         6.1090   -0.3760    2.2550 hc        1 PFQ      0.168000
     27 H13         5.7660    1.3890    2.1470 hc        1 PFQ      0.168000
     28 H14         7.9910    0.9820    3.2960 ha        1 PFQ      0.144000
     29 H15         7.7350    1.0380    5.7860 ha        1 PFQ      0.149000
     30 H16         5.5050    0.6130    6.8450 ha        1 PFQ      0.202000
     31 H19         1.9010   -2.2850    5.0030 hc        1 PFQ      0.079000
     32 H20         0.2630   -1.5360    4.8520 hc        1 PFQ      0.079000
     33 H21         0.3490   -2.0540    7.2200 ha        1 PFQ      0.113000
     34 H22         1.8730   -0.6010    8.6550 ha        1 PFQ      0.121000
     35 H9         -0.6390    0.1920    4.0510 hn        1 PFQ      0.288000
     36 H17         1.2370    0.7490    5.1120 hc        1 PFQ      0.094000
     37 H231       -0.4880    0.2680    6.5420 ho        1 PFQ      0.217500
     38 H232       -2.9100    0.7830    4.9790 ha        1 PFQ      0.147000
     39 H8C1       -4.3460    0.2040    3.9400 ha        1 PFQ      0.147000
     40 H8C2       -2.8370   -0.5690    2.1500 h4        1 PFQ      0.141000
     41 H24        -0.5300    1.7740    6.3580 ho        1 PFQ      0.217500
     42 N9         -1.0390   -0.0090    3.1470 n3        1 PFQ     -0.251000
@<TRIPOS>BOND
     1    1   13 1
     2    1   18 1
     3    2    3 1
     4    2   15 1
     5    2   20 1
     6    3    4 1
     7    3    8 1
     8    4    5 1
     9    4   26 1
    10    4   27 1
    11    5    6 1
    12    5   28 1
    13    6    7 1
    14    6   29 1
    15    7    8 1
    16    7   30 1
    17    8   19 1
    18    9   10 1
    19    9   21 1
    20    9   31 1
    21    9   32 1
    22   10   11 1
    23   10   33 1
    24   11   12 1
    25   11   34 1
    26   12   19 1
    27   13   14 1
    28   14   15 1
    29   14   16 1
    30   16   17 1
    31   16   20 1
    32   17   18 1
    33   17   42 1
    34   18   25 1
    35   19   21 1
    36   20   21 1
    37   21   36 1
    38   22   23 1
    39   22   38 1
    40   22   39 1
    41   23   40 1
    42   23   42 1
    43   24   37 1
    44   24   41 1
    45   35   42 1
@<TRIPOS>SUBSTRUCTURE
     1 PFQ         1 TEMP              0 ****  ****    0 ROOT
