@<TRIPOS>MOLECULE
molecule
   61    65     1     0     0
SMALL
bcc


@<TRIPOS>ATOM
      1 C1           0.0000     0.0000     0.0000 ca         1 PFR       0.161100
      2 C2           1.4020     0.0000     0.0000 ca         1 PFR       0.122100
      3 C3           2.1010     0.0000     1.1740 ca         1 PFR      -0.159000
      4 C4          -0.7030     0.0000     1.1850 ca         1 PFR      -0.271300
      5 C5          -0.0080     0.0000     2.4000 ca         1 PFR       0.455600
      6 C6           1.4090    -0.0000     2.3910 ca         1 PFR      -0.255600
      7 C7           2.0840    -0.0000     3.6350 ca         1 PFR       0.664200
      8 N8           1.3560     0.0000     4.7440 nb         1 PFR      -0.792000
      9 C9           0.0330    -0.0000     4.7040 ca         1 PFR       0.686900
     10 N10         -0.6450     0.0000     3.5800 nb         1 PFR      -0.734000
     11 O11         -0.6720     0.0060    -1.1800 os         1 PFR      -0.308900
     12 O12          2.0740    -0.0000    -1.1820 os         1 PFR      -0.320900
     13 C13         -2.0990     0.0110    -1.1150 c3         1 PFR       0.123700
     14 N14          3.4630     0.0000     3.6930 nh         1 PFR      -0.725300
     15 C15          3.9610     1.2120     4.3560 c3         1 PFR       0.168800
     16 C16          5.4890     1.2470     4.2740 c3         1 PFR      -0.082400
     17 C17          6.0610    -0.0000     4.9520 c3         1 PFR      -0.075400
     18 C18          5.4890    -1.2480     4.2740 c3         1 PFR      -0.024400
     19 C19          3.9610    -1.2120     4.3560 c3         1 PFR       0.176800
     20 C20          6.0010    -2.4810     4.9720 ca         1 PFR      -0.082300
     21 C21          5.7270    -2.6800     6.3130 ca         1 PFR      -0.123000
     22 C22          6.1980    -3.8110     6.9540 ca         1 PFR      -0.126500
     23 C23          6.9420    -4.7420     6.2550 ca         1 PFR      -0.129000
     24 C24          7.2160    -4.5440     4.9150 ca         1 PFR      -0.126500
     25 C25          6.7410    -3.4160     4.2720 ca         1 PFR      -0.123000
     26 C26          3.5020     0.0000    -1.1170 c3         1 PFR       0.139400
     27 C27          4.0770     0.0000    -2.5350 c3         1 PFR      -0.122700
     28 C28          5.5830     0.0010    -2.4650 ca         1 PFR       0.423600
     29 N29          6.2040     0.9400    -1.7790 nb         1 PFR      -0.694000
     30 C30          7.5180     0.9800    -1.6910 ca         1 PFR       0.424200
     31 C31          8.2980     0.0280    -2.3200 ca         1 PFR      -0.256300
     32 C32          7.6810    -0.9750    -3.0520 ca         1 PFR      -0.090000
     33 C33          6.2960    -0.9870    -3.1170 ca         1 PFR      -0.243300
     34 H3           3.1840    -0.0000     1.1620 ha         1 PFR       0.169000
     35 H4          -1.7860     0.0000     1.1760 ha         1 PFR       0.162000
     36 H9          -0.5140     0.0000     5.6390 h5         1 PFR       0.055100
     37 H13         -2.5070     0.0160    -2.1190 h1         1 PFR       0.045367
     38 H13A        -2.4400    -0.8740    -0.5910 h1         1 PFR       0.045367
     39 H13B        -2.4340     0.8950    -0.5850 h1         1 PFR       0.045367
     40 H15          3.6570     1.2030     5.3960 h1         1 PFR       0.048700
     41 H15A         3.5540     2.0860     3.8630 h1         1 PFR       0.048700
     42 H16          5.8570     2.1320     4.7780 hc         1 PFR       0.051200
     43 H16A         5.7930     1.2640     3.2340 hc         1 PFR       0.051200
     44 H17          7.1400    -0.0000     4.8560 hc         1 PFR       0.047200
     45 H17A         5.7860    -0.0000     5.9990 hc         1 PFR       0.047200
     46 H18          5.7920    -1.2640     3.2340 hc         1 PFR       0.066700
     47 H19          3.6570    -1.2030     5.3960 h1         1 PFR       0.052700
     48 H19A         3.5530    -2.0860     3.8630 h1         1 PFR       0.052700
     49 H21          5.1440    -1.9500     6.8610 ha         1 PFR       0.131500
     50 H22          5.9840    -3.9670     8.0040 ha         1 PFR       0.129500
     51 H23          7.3130    -5.6270     6.7580 ha         1 PFR       0.129000
     52 H24          7.7970    -5.2750     4.3670 ha         1 PFR       0.129500
     53 H25          6.9550    -3.2600     3.2210 ha         1 PFR       0.131500
     54 H26          3.8390     0.8850    -0.5910 h1         1 PFR       0.049200
     55 H26A         3.8390    -0.8840    -0.5900 h1         1 PFR       0.049200
     56 H27          3.7400    -0.8840    -3.0610 hc         1 PFR       0.069200
     57 H27A         3.7400     0.8850    -3.0620 hc         1 PFR       0.069200
     58 H30          7.9930     1.7670    -1.1180 h4         1 PFR       0.024100
     59 H31          9.3780     0.0670    -2.2460 ha         1 PFR       0.139000
     60 H32          8.2660    -1.7350    -3.5540 ha         1 PFR       0.139000
     61 H33          5.7800    -1.7560    -3.6800 ha         1 PFR       0.141000
@<TRIPOS>BOND
     1     2     1 ar
     2    11     1 1
     3     1     4 ar
     4    12     2 1
     5     2     3 ar
     6     3     6 ar
     7     3    34 1
     8     4     5 ar
     9     4    35 1
    10     6     5 ar
    11     5    10 ar
    12     6     7 ar
    13    14     7 1
    14     7     8 ar
    15     8     9 ar
    16    10     9 ar
    17     9    36 1
    18    11    13 1
    19    26    12 1
    20    13    37 1
    21    13    38 1
    22    13    39 1
    23    19    14 1
    24    14    15 1
    25    16    15 1
    26    15    40 1
    27    15    41 1
    28    17    16 1
    29    16    42 1
    30    16    43 1
    31    18    17 1
    32    17    44 1
    33    17    45 1
    34    20    18 1
    35    18    19 1
    36    18    46 1
    37    19    47 1
    38    19    48 1
    39    21    20 ar
    40    20    25 ar
    41    22    21 ar
    42    21    49 1
    43    22    23 ar
    44    22    50 1
    45    23    24 ar
    46    23    51 1
    47    24    25 ar
    48    24    52 1
    49    25    53 1
    50    27    26 1
    51    26    54 1
    52    26    55 1
    53    28    27 1
    54    27    56 1
    55    27    57 1
    56    33    28 ar
    57    29    28 ar
    58    30    29 ar
    59    31    30 ar
    60    30    58 1
    61    31    32 ar
    62    31    59 1
    63    32    33 ar
    64    32    60 1
    65    33    61 1
@<TRIPOS>SUBSTRUCTURE
     1 PFR         1 TEMP              0 ****  ****    0 ROOT
