@<TRIPOS>MOLECULE
molecule
   89    88     1     0     0
SMALL
bcc


@<TRIPOS>ATOM
      1 C1           0.0000     0.0000     0.0000 c3         1 PFS       0.117400
      2 O1          -0.4770     1.2210     0.5700 os         1 PFS      -0.417600
      3 C2           1.5300     0.0000     0.0000 c3         1 PFS       0.144100
      4 OXT          2.0130     0.0000     1.3700 os         1 PFS      -0.412900
      5 C            2.2150     1.1960     1.9450 c          1 PFS       0.631100
      6 O2           1.9960     2.2090     1.3250 o          1 PFS      -0.542000
      7 CH3          2.7160     1.2740     3.3640 c3         1 PFS      -0.139100
      8 C3           2.0400    -1.2490    -0.7210 c3         1 PFS       0.231400
      9 C11         -1.9020     1.3230     0.6160 c3         1 PFS       0.138400
     10 C12         -2.2970     2.6630     1.2410 c3         1 PFS      -0.079400
     11 O3           3.4640    -1.1910    -0.8220 os         1 PFS      -0.604200
     12 P            4.3400    -2.3440    -1.5260 p5         1 PFS       1.331800
     13 O31          4.2140    -3.6540    -0.7150 o          1 PFS      -0.796500
     14 O32          3.8250    -2.5770    -2.9640 o          1 PFS      -0.796500
     15 O33          5.8840    -1.8900    -1.5750 os         1 PFS      -0.612200
     16 C31          6.8990    -2.6530    -2.2330 c3         1 PFS       0.201400
     17 C32          8.2450    -1.9400    -2.0900 c3         1 PFS       0.094800
     18 N            8.6530    -1.9440    -0.6790 n4         1 PFS      -0.568800
     19 C1N          8.6510    -3.3230    -0.1720 c3         1 PFS       0.097433
     20 C2N         10.0050    -1.3800    -0.5580 c3         1 PFS       0.097433
     21 C3N          7.7130    -1.1330     0.1060 c3         1 PFS       0.097433
     22 C13         -3.8220     2.7730     1.2920 c3         1 PFS      -0.082400
     23 C14         -4.2170     4.1120     1.9160 c3         1 PFS      -0.079400
     24 C15         -5.7420     4.2210     1.9670 c3         1 PFS      -0.082400
     25 C16         -6.1370     5.5610     2.5920 c3         1 PFS      -0.082400
     26 C17         -7.6630     5.6700     2.6420 c3         1 PFS      -0.082400
     27 C18         -8.0570     7.0100     3.2670 c3         1 PFS      -0.081400
     28 C19         -9.5830     7.1190     3.3160 c3         1 PFS      -0.082400
     29 C20         -9.9780     8.4590     3.9420 c3         1 PFS      -0.082400
     30 C21        -11.5020     8.5680     3.9920 c3         1 PFS      -0.081400
     31 C22        -11.8970     9.9080     4.6170 c3         1 PFS      -0.082400
     32 C23        -13.4230    10.0170     4.6670 c3         1 PFS      -0.082400
     33 C24        -13.8180    11.3570     5.2920 c3         1 PFS      -0.081400
     34 C25        -15.3430    11.4660     5.3420 c3         1 PFS      -0.084400
     35 C26        -15.7380    12.8050     5.9670 c3         1 PFS      -0.092100
     36 H11         -0.3610    -0.0890    -1.0180 h1         1 PFS       0.035200
     37 H12         -0.3610    -0.8370     0.5850 h1         1 PFS       0.035200
     38 H2           1.8910     0.8850    -0.5100 h1         1 PFS       0.086700
     39 HH31         2.3260     2.1680     3.8360 hc         1 PFS       0.061367
     40 HH32         3.7990     1.3090     3.3640 hc         1 PFS       0.061367
     41 HH33         2.3830     0.4010     3.9130 hc         1 PFS       0.061367
     42 H31          1.6090    -1.2940    -1.7140 h1         1 PFS       0.052200
     43 H32          1.7530    -2.1310    -0.1620 h1         1 PFS       0.052200
     44 H111        -2.3030     0.5140     1.2140 h1         1 PFS       0.020700
     45 H112        -2.3020     1.2620    -0.3890 h1         1 PFS       0.020700
     46 H121        -1.8970     2.7250     2.2460 hc         1 PFS       0.054700
     47 H122        -1.8970     3.4730     0.6420 hc         1 PFS       0.054700
     48 H311         6.9610    -3.6360    -1.7830 h1         1 PFS       0.071200
     49 H312         6.6520    -2.7510    -3.2840 h1         1 PFS       0.071200
     50 H321         8.9910    -2.4550    -2.6830 hx         1 PFS       0.093200
     51 H322         8.1510    -0.9180    -2.4350 hx         1 PFS       0.093200
     52 H1N1         9.0290    -3.9900    -0.9370 hx         1 PFS       0.095478
     53 H1N2         7.6400    -3.6100     0.0910 hx         1 PFS       0.095478
     54 H1N3         9.2840    -3.3860     0.7060 hx         1 PFS       0.095478
     55 H2N1        10.0130    -0.3730    -0.9570 hx         1 PFS       0.095478
     56 H2N2        10.7030    -1.9940    -1.1140 hx         1 PFS       0.095478
     57 H2N3        10.2950    -1.3580     0.4850 hx         1 PFS       0.095478
     58 H3N1         7.3310    -0.3270    -0.5090 hx         1 PFS       0.095478
     59 H3N2         8.2240    -0.7200     0.9670 hx         1 PFS       0.095478
     60 H3N3         6.8900    -1.7550     0.4390 hx         1 PFS       0.095478
     61 H131        -4.2220     1.9630     1.8900 hc         1 PFS       0.040200
     62 H132        -4.2220     2.7100     0.2870 hc         1 PFS       0.040200
     63 H141        -3.8170     4.9210     1.3170 hc         1 PFS       0.042700
     64 H142        -3.8170     4.1740     2.9210 hc         1 PFS       0.042700
     65 H151        -6.1420     4.1590     0.9620 hc         1 PFS       0.040700
     66 H152        -6.1430     3.4120     2.5650 hc         1 PFS       0.040700
     67 H161        -5.7370     6.3710     1.9930 hc         1 PFS       0.041200
     68 H162        -5.7370     5.6230     3.5970 hc         1 PFS       0.041200
     69 H171        -8.0630     4.8600     3.2400 hc         1 PFS       0.040700
     70 H172        -8.0620     5.6080     1.6370 hc         1 PFS       0.040700
     71 H181        -7.6580     7.0710     4.2720 hc         1 PFS       0.040700
     72 H182        -7.6560     7.8190     2.6690 hc         1 PFS       0.040700
     73 H191        -9.9840     6.3090     3.9140 hc         1 PFS       0.040700
     74 H192        -9.9820     7.0580     2.3110 hc         1 PFS       0.040700
     75 H201        -9.5770     9.2680     3.3440 hc         1 PFS       0.040700
     76 H202        -9.5780     8.5190     4.9470 hc         1 PFS       0.040700
     77 H211       -11.9030     7.7590     4.5890 hc         1 PFS       0.040700
     78 H212       -11.9020     8.5080     2.9870 hc         1 PFS       0.040700
     79 H221       -11.4960    10.7180     4.0200 hc         1 PFS       0.040700
     80 H222       -11.4980     9.9690     5.6230 hc         1 PFS       0.040700
     81 H231       -13.8220     9.9560     3.6620 hc         1 PFS       0.040700
     82 H232       -13.8240     9.2070     5.2640 hc         1 PFS       0.040700
     83 H241       -13.4170    12.1660     4.6950 hc         1 PFS       0.040700
     84 H242       -13.4180    11.4170     6.2970 hc         1 PFS       0.040700
     85 H251       -15.7430    10.6570     5.9400 hc         1 PFS       0.039700
     86 H252       -15.7420    11.4050     4.3370 hc         1 PFS       0.039700
     87 H261       -15.3330    12.8690     6.9700 hc         1 PFS       0.032367
     88 H262       -15.3430    13.6150     5.3660 hc         1 PFS       0.032367
     89 H263       -16.8180    12.8800     6.0090 hc         1 PFS       0.032367
@<TRIPOS>BOND
     1     1     2 1
     2     1     3 1
     3     1    36 1
     4     1    37 1
     5     2     9 1
     6     3     4 1
     7     3     8 1
     8     3    38 1
     9     4     5 1
    10     5     6 2
    11     5     7 1
    12     7    39 1
    13     7    40 1
    14     7    41 1
    15     8    11 1
    16     8    42 1
    17     8    43 1
    18     9    10 1
    19     9    44 1
    20     9    45 1
    21    10    22 1
    22    10    46 1
    23    10    47 1
    24    11    12 1
    25    12    13 1
    26    12    14 1
    27    12    15 1
    28    15    16 1
    29    16    17 1
    30    16    48 1
    31    16    49 1
    32    17    18 1
    33    17    50 1
    34    17    51 1
    35    18    19 1
    36    18    20 1
    37    18    21 1
    38    19    52 1
    39    19    53 1
    40    19    54 1
    41    20    55 1
    42    20    56 1
    43    20    57 1
    44    21    58 1
    45    21    59 1
    46    21    60 1
    47    22    23 1
    48    22    61 1
    49    22    62 1
    50    23    24 1
    51    23    63 1
    52    23    64 1
    53    24    25 1
    54    24    65 1
    55    24    66 1
    56    25    26 1
    57    25    67 1
    58    25    68 1
    59    26    27 1
    60    26    69 1
    61    26    70 1
    62    27    28 1
    63    27    71 1
    64    27    72 1
    65    28    29 1
    66    28    73 1
    67    28    74 1
    68    29    30 1
    69    29    75 1
    70    29    76 1
    71    30    31 1
    72    30    77 1
    73    30    78 1
    74    31    32 1
    75    31    79 1
    76    31    80 1
    77    32    33 1
    78    32    81 1
    79    32    82 1
    80    33    34 1
    81    33    83 1
    82    33    84 1
    83    34    35 1
    84    34    85 1
    85    34    86 1
    86    35    87 1
    87    35    88 1
    88    35    89 1
@<TRIPOS>SUBSTRUCTURE
     1 PFS         1 TEMP              0 ****  ****    0 ROOT
