@<TRIPOS>MOLECULE
PFT
   32    34     1     0     0
SMALL
bcc


@<TRIPOS>ATOM
      1 N1           0.0000     0.0000     0.0000 n          1 PFT      -0.164800
      2 C2          -0.8030     0.0000    -1.0830 c          1 PFT       0.645700
      3 C3           1.4660     0.0000     0.0000 c3         1 PFT       0.117800
      4 C4          -0.4260     0.0040     1.4030 c3         1 PFT       0.117800
      5 C5          -2.2630    -0.1080    -0.9160 ca         1 PFT      -0.202600
      6 O6          -0.3220     0.0910    -2.1960 o          1 PFT      -0.629100
      7 C7           1.9240     0.0000     1.4360 ca         1 PFT      -0.113800
      8 C8           0.8150     0.0020     2.2590 ca         1 PFT      -0.113800
      9 C9          -2.9980    -1.0030    -1.7090 ca         1 PFT       0.222100
     10 C10         -2.9220     0.6770     0.0350 ca         1 PFT      -0.040000
     11 C11          3.1930    -0.0000     1.9890 ca         1 PFT      -0.071500
     12 C12          0.9750     0.0040     3.6340 ca         1 PFT      -0.071500
     13 C13         -4.3690    -1.0990    -1.5470 ca         1 PFT      -0.242000
     14 O14         -2.3650    -1.7710    -2.6320 oh         1 PFT      -0.465100
     15 C15         -4.2850     0.5720     0.1870 ca         1 PFT      -0.179000
     16 C16          3.3520    -0.0010     3.3610 ca         1 PFT      -0.097500
     17 C17          2.2420     0.0020     4.1840 ca         1 PFT      -0.097500
     18 C18         -5.0130    -0.3130    -0.6030 ca         1 PFT       0.181100
     19 O19         -6.3570    -0.4090    -0.4470 oh         1 PFT      -0.501100
     20 H3           1.8210    -0.9010    -0.4860 h1         1 PFT       0.027700
     21 H2           1.8210     0.9010    -0.4860 h1         1 PFT       0.027700
     22 H4          -1.0140    -0.8810     1.6100 h1         1 PFT       0.027700
     23 H41         -1.0080     0.8950     1.6060 h1         1 PFT       0.027700
     24 H10         -2.3600     1.3670     0.6520 ha         1 PFT       0.116000
     25 H11          4.0640    -0.0030     1.3440 ha         1 PFT       0.104000
     26 H12          0.1050     0.0060     4.2790 ha         1 PFT       0.104000
     27 H13         -4.9390    -1.7870    -2.1580 ha         1 PFT       0.125000
     28 HO14        -2.8980    -1.8350    -3.4070 ho         1 PFT       0.409000
     29 H15         -4.7940     1.1820     0.9240 ha         1 PFT       0.119000
     30 H16          4.3460    -0.0020     3.7920 ha         1 PFT       0.105500
     31 H17          2.3650     0.0020     5.2610 ha         1 PFT       0.105500
     32 HO19        -6.5540    -1.1040     0.1580 ho         1 PFT       0.407000
@<TRIPOS>BOND
     1     1     2 1   
     2     1     3 1   
     3     1     4 1   
     4     2     5 1   
     5     2     6 2   
     6     3     7 1   
     7     3    20 1   
     8     3    21 1   
     9     4     8 1   
    10     4    22 1   
    11     4    23 1   
    12     5     9 ar  
    13     5    10 ar  
    14     7     8 ar  
    15     7    11 ar  
    16     8    12 ar  
    17     9    13 ar  
    18     9    14 1   
    19    10    15 ar  
    20    10    24 1   
    21    11    16 ar  
    22    11    25 1   
    23    12    17 ar  
    24    12    26 1   
    25    13    18 ar  
    26    13    27 1   
    27    14    28 1   
    28    15    18 ar  
    29    15    29 1   
    30    16    17 ar  
    31    16    30 1   
    32    17    31 1   
    33    18    19 1   
    34    19    32 1   
@<TRIPOS>SUBSTRUCTURE
     1 PFT         1 TEMP              0 ****  ****    0 ROOT
