@<TRIPOS>MOLECULE
PFU
   34    33     1     0     0
SMALL
bcc


@<TRIPOS>ATOM
      1 P           1.1470   -1.6030   -2.3120 p5        1 PFU      1.502500
      2 C1         -4.9710   -3.0080   -4.4490 c3        1 PFU     -0.004000
      3 N1         -6.0500   -3.1880   -6.5390 n2        1 PFU     -0.324000
      4 C2         -6.4710   -2.9870   -4.2840 c2        1 PFU     -0.357000
      5 N2         -4.8160   -3.1990   -5.9380 n3        1 PFU     -0.163000
      6 O2         -9.3220   -3.8240   -5.3080 o         1 PFU     -0.400000
      7 C3         -7.0140   -3.1180   -5.5760 c2        1 PFU     -0.043000
      8 N3         -8.8670   -2.3810   -6.9950 n         1 PFU     -0.431000
      9 C4         -8.4560   -3.1660   -5.9220 c2        1 PFU      0.377000
     10 C1'        -4.3510   -4.1590   -3.6580 c3        1 PFU      0.188000
     11 O1P         2.5710   -2.0220   -2.1730 o         1 PFU     -0.854833
     12 C2'        -3.3480   -5.0290   -4.3240 c1        1 PFU     -0.102000
     13 O2'         4.3220   -3.6530   -1.0780 oh        1 PFU     -0.453500
     14 O2P         0.3470   -1.3280   -1.0970 o         1 PFU     -0.854833
     15 C3'        -2.2030   -5.0100   -3.8470 c1        1 PFU     -0.294000
     16 O3'         5.0790   -1.4470   -2.7850 oh        1 PFU     -0.453500
     17 O3P         0.6420   -1.1290   -3.6190 o         1 PFU     -0.854833
     18 C4'        -2.0820   -4.1660   -2.6400 c3        1 PFU      0.120000
     19 O4'        -3.4450   -3.5820   -2.5820 os        1 PFU     -0.353000
     20 C5'        -1.0600   -3.0620   -2.7200 c2        1 PFU      0.273000
     21 O5'         0.1420   -3.3170   -2.5100 os        1 PFU     -0.377000
     22 HO1        -7.1540   -1.8690   -2.9400 ho        1 PFU      0.139000
     23 HN3        -8.1780   -2.0500   -7.6250 hn        1 PFU      0.197000
     24 HN3A       -9.7690   -2.5460   -7.3660 hn        1 PFU      0.197000
     25 H1'        -4.4870   -2.0620   -4.0720 h1        1 PFU      0.076000
     26 H2'        -5.1250   -4.7460   -3.1000 h1        1 PFU      0.138000
     27 HO2'        3.6860   -3.0670   -0.6550 ho        1 PFU      0.221750
     28 H3'         4.1060   -3.5510   -2.0120 ho        1 PFU      0.221750
     29 HO3'        4.3480   -1.7130   -3.3550 ho        1 PFU      0.221750
     30 H4'         4.6770   -1.4750   -1.9090 ho        1 PFU      0.221750
     31 H5'        -1.9460   -4.7620   -1.7000 h1        1 PFU      0.130000
     32 H5'A       -1.4030   -2.0220   -2.9310 h4        1 PFU      0.192000
     33 HN1        -4.2730   -2.4290   -6.3090 hn        1 PFU      0.125000
     34 O1         -7.1000   -2.8300   -3.0890 oh        1 PFU     -0.222000
@<TRIPOS>BOND
     1    1   11 1   
     2    1   14 1   
     3    1   17 1   
     4    1   21 1   
     5    2    4 1   
     6    2    5 1   
     7    2   10 1   
     8    2   25 1   
     9    3    5 1   
    10    3    7 1   
    11    4    7 1   
    12    4   34 1   
    13    5   33 1   
    14    6    9 1   
    15    7    9 1   
    16    8    9 1   
    17    8   23 1   
    18    8   24 1   
    19   10   12 1   
    20   10   19 1   
    21   10   26 1   
    22   12   15 1   
    23   13   27 1   
    24   13   28 1   
    25   15   18 1   
    26   16   29 1   
    27   16   30 1   
    28   18   19 1   
    29   18   20 1   
    30   18   31 1   
    31   20   21 1   
    32   20   32 1   
    33   22   34 1   
@<TRIPOS>SUBSTRUCTURE
     1 PFU         1 TEMP              0 ****  ****    0 ROOT
