@<TRIPOS>MOLECULE
molecule
   35    36     1     0     0
SMALL
bcc


@<TRIPOS>ATOM
      1 P            0.0000     0.0000     0.0000 p5         1 PFU       1.195900
      2 C1          -2.9250    -6.0550    -0.3280 cc         1 PFU       0.351600
      3 N1          -3.8170    -6.6800     1.5120 na         1 PFU      -0.008600
      4 C2          -2.8120    -7.4520    -0.2940 cc         1 PFU      -0.008200
      5 N2          -3.5250    -5.6740     0.7700 nd         1 PFU      -0.420800
      6 O2          -3.1180   -10.1440     0.7740 o          1 PFU      -0.562100
      7 C3          -3.3980    -7.8370     0.9070 cd         1 PFU      -0.246900
      8 N3          -4.1350    -9.4170     2.6100 nz         1 PFU      -0.623400
      9 C4          -3.5390    -9.2040     1.4210 c          1 PFU       0.324700
     10 C1'         -2.4370    -5.1520    -1.4310 c3         1 PFU       0.085800
     11 O1P          1.6100     0.0000     0.0000 o          1 PFU      -0.710833
     12 C2'         -3.6320    -4.6560    -2.2690 c3         1 PFU      -0.400900
     13 O2'         -3.4910    -5.0660    -3.6310 oh         1 PFU      -0.616800
     14 O2P         -0.5370     0.0000     1.5180 o          1 PFU      -0.710833
     15 C3'         -3.5590    -3.1140    -2.1560 c3         1 PFU       0.087100
     16 O3'         -3.8430    -2.4970    -3.4140 oh         1 PFU      -0.567800
     17 O3P         -0.4930     1.2080    -0.6980 o          1 PFU      -0.710833
     18 C4'         -2.0800    -2.8860    -1.7520 c3         1 PFU       0.162100
     19 O4'         -1.7990    -3.9930    -0.8680 os         1 PFU      -0.351600
     20 C5'         -1.9210    -1.5540    -1.0170 c3         1 PFU       0.055400
     21 O5'         -0.5360    -1.3140    -0.7590 os         1 PFU      -0.554200
     22 HO1         -2.9270    -8.6800    -1.7320 ho         1 PFU       0.417000
     23 HN3         -3.6290    -8.9390     3.3280 hn         1 PFU       0.424800
     24 HN3A        -4.1460   -10.3990     2.8060 hn         1 PFU       0.424800
     25 H1'         -1.7390    -5.6830    -2.0660 h1         1 PFU       0.057700
     26 H2'         -2.6980    -5.1540    -2.5020 h1         1 PFU       0.408700
     27 HO2'        -4.3060    -5.3930    -3.2870 ho         1 PFU       0.498000
     28 H3'         -4.2270    -2.7550    -1.3830 h1         1 PFU       0.081700
     29 HO3'        -4.4350    -2.1720    -2.7550 ho         1 PFU       0.415000
     30 H4'         -1.4390    -2.9270    -2.6240 h1         1 PFU       0.044700
     31 H5'         -1.4960    -1.7270    -1.9990 h1         1 PFU       0.094700
     32 H5'A        -2.5900    -0.7210    -1.2000 h1         1 PFU       0.094700
     33 HN1         -4.2790    -6.6280     2.3980 hn         1 PFU       0.314700
     34 O1          -2.2490    -8.2570    -1.2320 oh         1 PFU      -0.472100
     35 H33         -5.0750    -9.0740     2.5790 hn         1 PFU       0.424800
@<TRIPOS>BOND
     1    11     1 1
     2    14     1 1
     3     1    21 1
     4     1    17 1
     5     5     2 2
     6     4     2 1
     7     2    10 1
     8     3     7 1
     9     3     5 1
    10     4    34 1
    11    34    22 1
    12     7     4 2
    13     9     6 2
    14     9     7 1
    15     8     9 1
    16     8    23 1
    17     8    24 1
    18    19    10 1
    19    10    12 1
    20    10    25 1
    21    12    15 1
    22    12    13 1
    23    12    26 1
    24    13    27 1
    25    18    15 1
    26    15    16 1
    27    15    28 1
    28    16    29 1
    29    20    18 1
    30    19    18 1
    31    18    30 1
    32    20    21 1
    33    20    31 1
    34    20    32 1
    35     3    33 1
    36    35     8 1
@<TRIPOS>SUBSTRUCTURE
     1 PFU         1 TEMP              0 ****  ****    0 ROOT
