@<TRIPOS>MOLECULE
molecule
   66    67     1     0     0
SMALL
bcc


@<TRIPOS>ATOM
      1 C36          0.0000     0.0000     0.0000 c          1 PFV       0.782100
      2 C34          0.0570     0.0010     2.4360 c3         1 PFV       0.178200
      3 C6          -2.0650     1.5920    -7.8860 ce         1 PFV       0.277300
      4 C9          -3.2090     0.6630    -8.0040 cc         1 PFV       0.421000
      5 O15         -0.8010     3.4170    -8.6740 os         1 PFV      -0.096300
      6 C18         -0.9120     3.7480   -11.0650 c3         1 PFV      -0.095100
      7 C16         -0.7670     4.4150    -9.6960 c3         1 PFV       0.041800
      8 C19         -1.9190     5.4010    -9.4840 c3         1 PFV      -0.095100
      9 C26         -0.9790    -1.0640     4.4120 cd         1 PFV      -0.305200
     10 O37          1.2160     0.0000     0.0000 o          1 PFV      -0.698100
     11 N35         -0.6750     0.0000     1.1670 ns         1 PFV      -0.608900
     12 C27         -0.9220     0.0010     3.5810 cc         1 PFV       0.140800
     13 N28         -1.7350     1.0690     3.7660 na         1 PFV      -0.280700
     14 O38         -1.6480     2.1660     2.8760 oh         1 PFV      -0.297300
     15 C29         -2.6320     1.1090     4.7850 cc         1 PFV       0.032000
     16 C30         -2.7380     0.0740     5.6520 cd         1 PFV      -0.070100
     17 O33         -3.6380     0.1180     6.6720 oh         1 PFV      -0.482100
     18 C31         -1.9030    -1.0600     5.4790 c          1 PFV       0.554500
     19 O32         -1.9770    -2.0110     6.2460 o          1 PFV      -0.584100
     20 N4          -0.6740     0.0050    -1.1670 ns         1 PFV      -0.576900
     21 C3           0.0590     0.0110    -2.4360 c3         1 PFV       0.114000
     22 C2          -0.9340     0.0160    -3.5990 c3         1 PFV       0.240500
     23 N1          -1.8530     1.1470    -3.4510 n7         1 PFV      -0.919100
     24 S22         -3.4900     0.8920    -3.4710 s6         1 PFV       1.452700
     25 O25         -3.7730     0.1980    -4.6790 o          1 PFV      -0.733867
     26 O24         -3.8100    -0.0710    -2.3370 o          1 PFV      -0.733867
     27 O23         -4.0930     2.1320    -3.1260 o          1 PFV      -0.733867
     28 CA          -0.1730     0.1480    -4.9200 c3         1 PFV      -0.015300
     29 C            0.6540    -1.0910    -5.1490 c          1 PFV       0.553900
     30 O            0.4660    -1.7700    -6.1300 o          1 PFV      -0.529100
     31 N           -1.1270     0.3080    -6.0200 ns         1 PFV      -0.553900
     32 C5          -1.0390     1.3760    -6.8380 c          1 PFV       0.559800
     33 O7          -0.1200     2.1600    -6.7170 o          1 PFV      -0.581100
     34 N8          -1.9580     2.6010    -8.7030 n2         1 PFV      -0.405200
     35 C17          0.5440     5.1540    -9.6320 c          1 PFV       0.908600
     36 O21          1.4010     4.8000    -8.8570 o          1 PFV      -0.829300
     37 O20          0.7620     6.2060   -10.4380 o          1 PFV      -0.829300
     38 N13         -3.3250    -0.4280    -7.2450 nc         1 PFV      -0.714000
     39 C12         -4.3720    -1.1670    -7.4390 cd         1 PFV       0.798300
     40 N14         -4.6660    -2.3330    -6.7510 nv         1 PFV      -0.985500
     41 S11         -5.3650    -0.4610    -8.7110 ss         1 PFV      -0.392300
     42 C10         -4.2120     0.8600    -8.8830 cd         1 PFV      -0.179400
     43 H1           0.6810    -0.8830     2.4940 h1         1 PFV       0.064700
     44 H2           0.6800     0.8860     2.4930 h1         1 PFV       0.064700
     45 H3          -0.7470     4.4830   -11.8440 hc         1 PFV       0.029700
     46 H4          -0.1830     2.9530   -11.1580 hc         1 PFV       0.029700
     47 H5          -1.9090     3.3360   -11.1620 hc         1 PFV       0.029700
     48 H6          -1.9090     5.7520    -8.4590 hc         1 PFV       0.029700
     49 H7          -2.8600     4.9060    -9.6870 hc         1 PFV       0.029700
     50 H8          -1.8010     6.2430   -10.1550 hc         1 PFV       0.029700
     51 H9          -0.3280    -1.9160     4.2550 ha         1 PFV       0.176000
     52 H10         -1.6740    -0.0470     1.1660 hn         1 PFV       0.329500
     53 H11         -1.5480     2.9640     3.3690 ho         1 PFV       0.410000
     54 H12         -3.2690     1.9770     4.9060 h4         1 PFV       0.166000
     55 H13         -3.2970     0.6540     7.3690 ho         1 PFV       0.403000
     56 H14         -1.6740    -0.0390    -1.1680 hn         1 PFV       0.357500
     57 H15          0.6820    -0.8740    -2.4970 h1         1 PFV       0.040200
     58 H16          0.6830     0.8950    -2.4890 h1         1 PFV       0.040200
     59 H17         -1.4980    -0.9090    -3.5980 h1         1 PFV       0.075700
     60 H18         -1.4920     2.0740    -3.3410 hn         1 PFV       0.428800
     61 H19          0.4780     1.0130    -4.8770 h1         1 PFV       0.110700
     62 H20          1.4500    -1.3450    -4.4590 h4         1 PFV      -0.023800
     63 H21         -1.8120    -0.4000    -6.1940 hn         1 PFV       0.373500
     64 H23         -5.5130    -2.8290    -6.9460 hn         1 PFV       0.442300
     65 H24         -4.0160    -2.6970    -6.0830 hn         1 PFV       0.442300
     66 H25         -4.2920     1.6860    -9.5780 h4         1 PFV       0.189000
@<TRIPOS>BOND
     1    14    13 1
     2    15    13 1
     3    15    16 2
     4    17    16 1
     5    13    12 1
     6    16    18 1
     7    20    21 1
     8    20     1 1
     9    11     1 1
    10    11     2 1
    11    21    22 1
    12    12     2 1
    13    12     9 2
    14    18    19 2
    15    18     9 1
    16    27    24 1
    17     1    10 2
    18    22    28 1
    19    22    23 1
    20    33    32 2
    21    28    29 1
    22    28    31 1
    23    29    30 2
    24    25    24 1
    25    24    23 1
    26    24    26 1
    27    32    31 1
    28    32     3 1
    29    42     4 2
    30    42    41 1
    31     3     4 1
    32     3    34 2
    33     6     7 1
    34     5    34 1
    35     5     7 1
    36    36    35 1
    37     4    38 1
    38     7    35 1
    39     7     8 1
    40    41    39 1
    41    35    37 1
    42    38    39 2
    43    39    40 1
    44     2    43 1
    45     2    44 1
    46     6    45 1
    47     6    46 1
    48     6    47 1
    49     8    48 1
    50     8    49 1
    51     8    50 1
    52     9    51 1
    53    11    52 1
    54    14    53 1
    55    15    54 1
    56    17    55 1
    57    20    56 1
    58    21    57 1
    59    21    58 1
    60    22    59 1
    61    23    60 1
    62    28    61 1
    63    29    62 1
    64    31    63 1
    65    40    64 1
    66    40    65 1
    67    42    66 1
@<TRIPOS>SUBSTRUCTURE
     1 PFV         1 TEMP              0 ****  ****    0 ROOT
