@<TRIPOS>MOLECULE
PFV
   66    67     1     0     0
SMALL
bcc


@<TRIPOS>ATOM
      1 C36          0.0000     0.0000     0.0000 c          1 PFV       0.578100
      2 C34          0.0570     0.0010     2.4360 c3         1 PFV       0.132200
      3 C6          -2.0650     1.5920    -7.8860 ce         1 PFV       0.221300
      4 C9          -3.2090     0.6630    -8.0040 cc         1 PFV       0.382000
      5 O15         -0.8010     3.4170    -8.6740 os         1 PFV      -0.079300
      6 C18         -0.9120     3.7480   -11.0650 c3         1 PFV      -0.015600
      7 C16         -0.7670     4.4150    -9.6960 c3         1 PFV       0.047800
      8 C19         -1.9190     5.4010    -9.4840 c3         1 PFV      -0.015600
      9 C26         -0.9790    -1.0640     4.4120 cc         1 PFV      -0.275200
     10 O37          1.2160     0.0000     0.0000 o          1 PFV      -0.749100
     11 N35         -0.6750     0.0000     1.1670 ns         1 PFV      -0.236900
     12 C27         -0.9220     0.0010     3.5810 cd         1 PFV      -0.058200
     13 N28         -1.7350     1.0690     3.7660 na         1 PFV       0.225300
     14 O38         -1.6480     2.1660     2.8760 oh         1 PFV      -0.408300
     15 C29         -2.6320     1.1090     4.7850 cc         1 PFV      -0.159000
     16 C30         -2.7380     0.0740     5.6520 cd         1 PFV      -0.037100
     17 O33         -3.6380     0.1180     6.6720 oh         1 PFV      -0.464100
     18 C31         -1.9030    -1.0600     5.4790 c          1 PFV       0.592500
     19 O32         -1.9770    -2.0110     6.2460 o          1 PFV      -0.633100
     20 N4          -0.6740     0.0050    -1.1670 ns         1 PFV      -0.194900
     21 C3           0.0590     0.0110    -2.4360 c3         1 PFV       0.039000
     22 C2          -0.9340     0.0160    -3.5990 c3         1 PFV       0.204500
     23 N1          -1.8530     1.1470    -3.4510 n7         1 PFV      -0.619100
     24 S22         -3.4900     0.8920    -3.4710 s6         1 PFV       1.115700
     25 O25         -3.7730     0.1980    -4.6790 o          1 PFV      -0.660867
     26 O24         -3.8100    -0.0710    -2.3370 o          1 PFV      -0.660867
     27 O23         -4.0930     2.1320    -3.1260 o          1 PFV      -0.660867
     28 CA          -0.1730     0.1480    -4.9200 c3         1 PFV      -0.130300
     29 C            0.6540    -1.0910    -5.1490 c          1 PFV       0.647900
     30 O            0.4660    -1.7700    -6.1300 o          1 PFV      -0.573100
     31 N           -1.1270     0.3080    -6.0200 ns         1 PFV      -0.195900
     32 C5          -1.0390     1.3760    -6.8380 c          1 PFV       0.488800
     33 O7          -0.1200     2.1600    -6.7170 o          1 PFV      -0.635100
     34 N8          -1.9580     2.6010    -8.7030 n2         1 PFV      -0.348200
     35 C17          0.5440     5.1540    -9.6320 c          1 PFV       0.987600
     36 O21          1.4010     4.8000    -8.8570 o          1 PFV      -0.883300
     37 O20          0.7620     6.2060   -10.4380 o          1 PFV      -0.883300
     38 N13         -3.3250    -0.4280    -7.2450 nc         1 PFV      -0.580000
     39 C12         -4.3720    -1.1670    -7.4390 cd         1 PFV       0.600300
     40 N14         -4.6660    -2.3330    -6.7510 nv         1 PFV      -0.477500
     41 S11         -5.3650    -0.4610    -8.7110 ss         1 PFV      -0.451300
     42 C10         -4.2120     0.8600    -8.8830 cd         1 PFV      -0.146400
     43 H1           0.6810    -0.8830     2.4940 h1         1 PFV       0.030700
     44 H2           0.6800     0.8860     2.4930 h1         1 PFV       0.030700
     45 H3          -1.9100     3.3370   -11.1620 hc         1 PFV       0.002200
     46 H4          -0.1830     2.9520   -11.1580 hc         1 PFV       0.002200
     47 H5          -0.7470     4.4830   -11.8440 hc         1 PFV       0.002200
     48 H6          -1.8380     5.8440    -8.4980 hc         1 PFV       0.002200
     49 H7          -1.8700     6.1800   -10.2350 hc         1 PFV       0.002200
     50 H8          -2.8630     4.8770    -9.5680 hc         1 PFV       0.002200
     51 H9          -0.3280    -1.9160     4.2550 ha         1 PFV       0.145000
     52 H10         -1.6740    -0.0460     1.1660 hn         1 PFV       0.186500
     53 H11         -1.6710     2.9710     3.3660 ho         1 PFV       0.411000
     54 H12         -3.2690     1.9770     4.9060 h4         1 PFV       0.140000
     55 H13         -3.2480     0.5440     7.4170 ho         1 PFV       0.389000
     56 H14         -1.6740    -0.0390    -1.1680 hn         1 PFV       0.225500
     57 H15          0.6820    -0.8740    -2.4970 h1         1 PFV       0.016200
     58 H16          0.6830     0.8950    -2.4890 h1         1 PFV       0.016200
     59 H17         -1.4980    -0.9090    -3.5980 h1         1 PFV       0.049700
     60 H18         -1.4920     2.0740    -3.3410 hn         1 PFV       0.328800
     61 H19          0.4780     1.0130    -4.8770 h1         1 PFV       0.088700
     62 H20          1.4500    -1.3450    -4.4590 h4         1 PFV      -0.054800
     63 H21         -1.8120    -0.4000    -6.1940 hn         1 PFV       0.249500
     64 H23         -4.0250    -2.6850    -6.0680 hn         1 PFV       0.266300
     65 H24         -5.5030    -2.8400    -6.9600 hn         1 PFV       0.266300
     66 H25         -4.2930     1.6860    -9.5780 h4         1 PFV       0.171000
@<TRIPOS>BOND
     1     1    10 2   
     2     1    11 1   
     3     1    20 1   
     4     2    11 1   
     5     2    12 1   
     6     2    43 1   
     7     2    44 1   
     8     3     4 1   
     9     3    32 1   
    10     3    34 2   
    11     4    38 1   
    12     4    42 2   
    13     5     7 1   
    14     5    34 1   
    15     6     7 1   
    16     6    45 1   
    17     6    46 1   
    18     6    47 1   
    19     7     8 1   
    20     7    35 1   
    21     8    48 1   
    22     8    49 1   
    23     8    50 1   
    24     9    12 2   
    25     9    18 1   
    26     9    51 1   
    27    11    52 1   
    28    12    13 1   
    29    13    14 1   
    30    13    15 1   
    31    14    53 1   
    32    15    16 2   
    33    15    54 1   
    34    16    17 1   
    35    16    18 1   
    36    17    55 1   
    37    18    19 2   
    38    20    21 1   
    39    20    56 1   
    40    21    22 1   
    41    21    57 1   
    42    21    58 1   
    43    22    23 1   
    44    22    28 1   
    45    22    59 1   
    46    23    24 1   
    47    23    60 1   
    48    24    25 1   
    49    24    26 1   
    50    24    27 1   
    51    28    29 1   
    52    28    31 1   
    53    28    61 1   
    54    29    30 2   
    55    29    62 1   
    56    31    32 1   
    57    31    63 1   
    58    32    33 2   
    59    35    36 1   
    60    35    37 1   
    61    38    39 2   
    62    39    40 1   
    63    39    41 1   
    64    40    64 1   
    65    40    65 1   
    66    41    42 1   
    67    42    66 1   
@<TRIPOS>SUBSTRUCTURE
     1 PFV         1 TEMP              0 ****  ****    0 ROOT
