@<TRIPOS>MOLECULE
molecule
   67    72     1     0     0
SMALL
bcc


@<TRIPOS>ATOM
      1 C1           0.0000     0.0000     0.0000 ca         1 PFW       0.160100
      2 C2           1.4020     0.0000     0.0000 ca         1 PFW       0.123100
      3 C3           2.0990     0.0000     1.1740 ca         1 PFW      -0.160000
      4 C4          -0.7040     0.0010     1.1840 ca         1 PFW      -0.270300
      5 C5          -0.0080     0.0010     2.4000 ca         1 PFW       0.454600
      6 C6           1.4090     0.0010     2.3920 ca         1 PFW      -0.255600
      7 C7           2.0830     0.0010     3.6370 ca         1 PFW       0.665200
      8 N8           1.3550     0.0010     4.7440 nb         1 PFW      -0.792000
      9 C9           0.0320     0.0020     4.7030 ca         1 PFW       0.686900
     10 N10         -0.6460     0.0020     3.5810 nb         1 PFW      -0.733000
     11 N11          3.4620     0.0000     3.6940 nh         1 PFW      -0.725300
     12 C12          3.9610     1.2120     4.3570 c3         1 PFW       0.168800
     13 C13          5.4890     1.2480     4.2750 c3         1 PFW      -0.082400
     14 C14          6.0600    -0.0010     4.9530 c3         1 PFW      -0.076400
     15 C15          5.4870    -1.2490     4.2750 c3         1 PFW      -0.024400
     16 C16          3.9600    -1.2110     4.3570 c3         1 PFW       0.176800
     17 C17          6.0000    -2.4810     4.9740 ca         1 PFW      -0.081300
     18 C18          5.7250    -2.6790     6.3140 ca         1 PFW      -0.123000
     19 C19          6.1950    -3.8100     6.9560 ca         1 PFW      -0.126500
     20 C20          6.9400    -4.7420     6.2580 ca         1 PFW      -0.130000
     21 C21          7.2130    -4.5440     4.9170 ca         1 PFW      -0.126500
     22 C22          6.7390    -3.4160     4.2740 ca         1 PFW      -0.123000
     23 O23         -0.6720     0.0050    -1.1800 os         1 PFW      -0.308900
     24 O24          2.0750    -0.0010    -1.1810 os         1 PFW      -0.320900
     25 C25         -2.0990     0.0110    -1.1140 c3         1 PFW       0.123700
     26 C26          3.5020    -0.0020    -1.1160 c3         1 PFW       0.139400
     27 C27          4.0780    -0.0030    -2.5330 c3         1 PFW      -0.125700
     28 C28          5.5830    -0.0030    -2.4640 ca         1 PFW       0.437600
     29 N29          6.1900     0.9360    -1.7800 nb         1 PFW      -0.685000
     30 C30          7.6570    -1.0200    -3.0740 ca         1 PFW      -0.075000
     31 C31          6.2920    -1.0040    -3.1250 ca         1 PFW      -0.247300
     32 C32          8.3060    -0.0070    -2.3420 ca         1 PFW      -0.157300
     33 C33          7.5240     0.9770    -1.6890 ca         1 PFW       0.422600
     34 C34          8.1700     1.9890    -0.9580 ca         1 PFW      -0.165300
     35 C35          9.5290     2.0090    -0.8880 ca         1 PFW      -0.118000
     36 C36         10.2960     1.0400    -1.5310 ca         1 PFW      -0.126000
     37 C37          9.7060     0.0440    -2.2470 ca         1 PFW      -0.109000
     38 H3           3.1830     0.0000     1.1630 ha         1 PFW       0.169000
     39 H4          -1.7870     0.0010     1.1760 ha         1 PFW       0.162000
     40 H9          -0.5150     0.0020     5.6380 h5         1 PFW       0.054100
     41 H12          3.5540     2.0860     3.8640 h1         1 PFW       0.048700
     42 H12A         3.6570     1.2040     5.3970 h1         1 PFW       0.048700
     43 H13          5.7930     1.2650     3.2350 hc         1 PFW       0.051200
     44 H13A         5.8560     2.1330     4.7800 hc         1 PFW       0.051200
     45 H14          5.7850    -0.0000     6.0000 hc         1 PFW       0.047200
     46 H14A         7.1390    -0.0010     4.8570 hc         1 PFW       0.047200
     47 H15          5.7910    -1.2650     3.2350 hc         1 PFW       0.066700
     48 H16          3.6560    -1.2030     5.3970 h1         1 PFW       0.052700
     49 H16A         3.5520    -2.0850     3.8630 h1         1 PFW       0.052700
     50 H18          5.1410    -1.9490     6.8620 ha         1 PFW       0.132000
     51 H19          5.9800    -3.9650     8.0060 ha         1 PFW       0.129500
     52 H20          7.3100    -5.6270     6.7610 ha         1 PFW       0.129000
     53 H21          7.7950    -5.2760     4.3690 ha         1 PFW       0.129500
     54 H22          6.9540    -3.2610     3.2230 ha         1 PFW       0.132000
     55 H25         -2.4400    -0.8740    -0.5900 h1         1 PFW       0.045700
     56 H25A        -2.4330     0.8950    -0.5850 h1         1 PFW       0.045700
     57 H25B        -2.5070     0.0150    -2.1180 h1         1 PFW       0.045700
     58 H26          3.8390     0.8830    -0.5900 h1         1 PFW       0.049200
     59 H26A         3.8390    -0.8860    -0.5890 h1         1 PFW       0.049200
     60 H27          3.7400     0.8810    -3.0610 hc         1 PFW       0.069700
     61 H27A         3.7400    -0.8880    -3.0590 hc         1 PFW       0.069700
     62 H30          8.2240    -1.7910    -3.5810 ha         1 PFW       0.141000
     63 H31          5.7630    -1.7380    -3.7210 ha         1 PFW       0.141000
     64 H34          7.5880     2.7510    -0.4530 ha         1 PFW       0.149000
     65 H35         10.0220     2.7920    -0.3240 ha         1 PFW       0.134000
     66 H36         11.3770     1.0790    -1.4590 ha         1 PFW       0.132000
     67 H37         10.3130    -0.7040    -2.7430 ha         1 PFW       0.134000
@<TRIPOS>BOND
     1    23     1 1
     2     2     1 ar
     3     1     4 ar
     4    24     2 1
     5     2     3 ar
     6     3     6 ar
     7     3    38 1
     8     4     5 ar
     9     4    39 1
    10     6     5 ar
    11     5    10 ar
    12     6     7 ar
    13    11     7 1
    14     7     8 ar
    15     8     9 ar
    16    10     9 ar
    17     9    40 1
    18    16    11 1
    19    11    12 1
    20    13    12 1
    21    12    41 1
    22    12    42 1
    23    14    13 1
    24    13    43 1
    25    13    44 1
    26    15    14 1
    27    14    45 1
    28    14    46 1
    29    17    15 1
    30    15    16 1
    31    15    47 1
    32    16    48 1
    33    16    49 1
    34    18    17 ar
    35    17    22 ar
    36    19    18 ar
    37    18    50 1
    38    19    20 ar
    39    19    51 1
    40    20    21 ar
    41    20    52 1
    42    21    22 ar
    43    21    53 1
    44    22    54 1
    45    23    25 1
    46    26    24 1
    47    25    55 1
    48    25    56 1
    49    25    57 1
    50    27    26 1
    51    26    58 1
    52    26    59 1
    53    28    27 1
    54    27    60 1
    55    27    61 1
    56    29    28 ar
    57    31    28 ar
    58    33    29 ar
    59    32    30 ar
    60    30    31 ar
    61    30    62 1
    62    31    63 1
    63    37    32 ar
    64    32    33 ar
    65    34    33 ar
    66    35    34 ar
    67    34    64 1
    68    36    35 ar
    69    35    65 1
    70    36    37 ar
    71    36    66 1
    72    37    67 1
@<TRIPOS>SUBSTRUCTURE
     1 PFW         1 TEMP              0 ****  ****    0 ROOT
