@<TRIPOS>MOLECULE
molecule
   77    82     1     0     0
SMALL
bcc


@<TRIPOS>ATOM
      1 O31          0.0000     0.0000     0.0000 o          1 PFY      -0.559100
      2 C30          1.2170     0.0000     0.0000 c          1 PFY       0.717700
      3 N38          1.8900     0.0000     1.1670 n          1 PFY      -0.487800
      4 C39          1.2840     0.0000     2.5070 c3         1 PFY       0.119700
      5 C43          0.4480     1.2660     2.7000 c3         1 PFY       0.139800
      6 N33         -0.5390     1.3710     1.6160 n3         1 PFY      -0.669600
      7 C34         -1.2020     2.6940     1.6290 c3         1 PFY       0.150800
      8 C35         -2.6550     2.4740     1.1690 c3         1 PFY      -0.084900
      9 C36         -2.7770     0.9520     0.9270 c3         1 PFY      -0.084900
     10 C37         -1.6240     0.3720     1.7840 c3         1 PFY       0.150800
     11 C40          2.4370    -0.0290     3.5320 c3         1 PFY      -0.094400
     12 C41          3.6170    -0.6140     2.7120 c3         1 PFY      -0.098400
     13 C42          3.3580    -0.0070     1.3130 c3         1 PFY       0.099000
     14 C23          1.9540    -0.0060    -1.2760 cc         1 PFY      -0.226600
     15 C24          2.3730     1.1270    -2.0070 cc         1 PFY      -0.055300
     16 C29          2.1530     2.5700    -1.6310 c3         1 PFY      -0.024800
     17 C22          2.3700    -1.1230    -1.9780 cd         1 PFY      -0.045600
     18 C28          2.1440    -2.5540    -1.5660 c3         1 PFY      -0.028800
     19 N26          3.0080    -0.7200    -3.0900 na         1 PFY      -0.100100
     20 C25          3.0240     0.6590    -3.1310 cd         1 PFY      -0.164100
     21 C            3.6060     1.4520    -4.1430 cf         1 PFY       0.076800
     22 C21          3.5950     1.0180    -5.4540 cc         1 PFY      -0.212400
     23 C20          2.8960    -0.1540    -6.0000 c          1 PFY       0.716700
     24 O32          2.2090    -0.9370    -5.3700 o          1 PFY      -0.627500
     25 N19          3.1500    -0.2110    -7.3180 ns         1 PFY      -0.450100
     26 C18          3.9710     0.8340    -7.7230 ca         1 PFY       0.099600
     27 C9           4.4880     1.1780    -8.9670 ca         1 PFY      -0.178000
     28 C8           5.2940     2.2910    -9.0980 ca         1 PFY      -0.001000
     29 C17          4.2760     1.6350    -6.6130 ca         1 PFY      -0.119800
     30 C10          5.0830     2.7580    -6.7570 ca         1 PFY       0.017000
     31 C7           5.5980     3.0760    -7.9980 ca         1 PFY      -0.324500
     32 S11          6.6310     4.4920    -8.1860 sy         1 PFY       1.200300
     33 O12          7.2200     4.6680    -6.9050 o          1 PFY      -0.609300
     34 O13          7.4280     4.1950    -9.3250 o          1 PFY      -0.609300
     35 C14          5.4790     5.8460    -8.5500 c3         1 PFY      -0.159300
     36 C1           6.2520     7.1260    -8.7330 ca         1 PFY      -0.080300
     37 C6           6.7080     7.4860    -9.9900 ca         1 PFY       0.049400
     38 Cl6          6.3890     6.4610   -11.3550 cl         1 PFY      -0.080900
     39 C2           6.5010     7.9460    -7.6480 ca         1 PFY       0.049400
     40 Cl5          5.9240     7.5000    -6.0720 cl         1 PFY      -0.080900
     41 C3           7.2110     9.1210    -7.8170 ca         1 PFY      -0.118000
     42 C4           7.6710     9.4770    -9.0720 ca         1 PFY      -0.102000
     43 C5           7.4170     8.6610   -10.1580 ca         1 PFY      -0.118000
     44 H39          0.6640    -0.8800     2.6290 h1         1 PFY       0.056700
     45 H421         3.7440     1.0040     1.2650 h1         1 PFY       0.046200
     46 H422         3.8080    -0.6260     0.5470 h1         1 PFY       0.046200
     47 H431        -0.0660     1.2180     3.6520 h1         1 PFY       0.033700
     48 H432         1.0960     2.1340     2.6830 h1         1 PFY       0.033700
     49 H401         2.1910    -0.6780     4.3640 hc         1 PFY       0.053200
     50 H402         2.6690     0.9730     3.8740 hc         1 PFY       0.053200
     51 H341        -1.1920     3.1010     2.6330 h1         1 PFY       0.036700
     52 H342        -0.6970     3.3660     0.9460 h1         1 PFY       0.036700
     53 H371        -1.9200     0.3040     2.8240 h1         1 PFY       0.036700
     54 H372        -1.3150    -0.5930     1.4030 h1         1 PFY       0.036700
     55 H351        -3.3450     2.7870     1.9440 hc         1 PFY       0.046450
     56 H352        -2.8430     3.0150     0.2490 hc         1 PFY       0.046450
     57 H361        -3.7340     0.5850     1.2780 hc         1 PFY       0.046450
     58 H362        -2.6280     0.7190    -0.1200 hc         1 PFY       0.046450
     59 H411         3.5640    -1.6960     2.6790 hc         1 PFY       0.053200
     60 H412         4.5670    -0.2770     3.1090 hc         1 PFY       0.053200
     61 H291         1.2720     2.9450    -2.1380 hc         1 PFY       0.046367
     62 H292         2.0130     2.6470    -0.5600 hc         1 PFY       0.046367
     63 H293         3.0160     3.1550    -1.9260 hc         1 PFY       0.046367
     64 H281         1.1190    -2.6770    -1.2350 hc         1 PFY       0.054033
     65 H282         2.3320    -3.2070    -2.4090 hc         1 PFY       0.054033
     66 H283         2.8170    -2.8080    -0.7560 hc         1 PFY       0.054033
     67 H26          3.4090    -1.3250    -3.7780 hn         1 PFY       0.317700
     68 H            4.1660     2.3390    -3.8750 ha         1 PFY       0.152000
     69 H19          2.7930    -0.9170    -7.9310 hn         1 PFY       0.343500
     70 H9           4.2570     0.5720    -9.8350 ha         1 PFY       0.139000
     71 H8           5.7020     2.5470   -10.0680 ha         1 PFY       0.156000
     72 H10          5.3210     3.3710    -5.8960 ha         1 PFY       0.153000
     73 H141         4.7830     5.9590    -7.7280 h1         1 PFY       0.115700
     74 H142         4.9330     5.6210    -9.4580 h1         1 PFY       0.115700
     75 H5           7.7750     8.9410   -11.1410 ha         1 PFY       0.153000
     76 H3           7.4080     9.7620    -6.9660 ha         1 PFY       0.153000
     77 H4           8.2260    10.3980    -9.2040 ha         1 PFY       0.147000
@<TRIPOS>BOND
     1     1     2 2
     2     2     3 1
     3     2    14 1
     4     3     4 1
     5     3    13 1
     6     4     5 1
     7     4    11 1
     8     5     6 1
     9     6     7 1
    10     6    10 1
    11     7     8 1
    12     8     9 1
    13     9    10 1
    14    11    12 1
    15    12    13 1
    16    14    15 1
    17    14    17 2
    18    15    16 1
    19    15    20 2
    20    17    18 1
    21    17    19 1
    22    19    20 1
    23    20    21 1
    24    21    22 2
    25    22    23 1
    26    22    29 1
    27    23    24 2
    28    23    25 1
    29    25    26 1
    30    26    27 ar
    31    26    29 ar
    32    27    28 ar
    33    28    31 ar
    34    29    30 ar
    35    30    31 ar
    36    31    32 1
    37    32    33 2
    38    32    34 2
    39    32    35 1
    40    35    36 1
    41    36    37 ar
    42    36    39 ar
    43    37    38 1
    44    37    43 ar
    45    39    40 1
    46    39    41 ar
    47    41    42 ar
    48    42    43 ar
    49     4    44 1
    50    13    45 1
    51    13    46 1
    52     5    47 1
    53     5    48 1
    54    11    49 1
    55    11    50 1
    56     7    51 1
    57     7    52 1
    58    10    53 1
    59    10    54 1
    60     8    55 1
    61     8    56 1
    62     9    57 1
    63     9    58 1
    64    12    59 1
    65    12    60 1
    66    16    61 1
    67    16    62 1
    68    16    63 1
    69    18    64 1
    70    18    65 1
    71    18    66 1
    72    19    67 1
    73    21    68 1
    74    25    69 1
    75    27    70 1
    76    28    71 1
    77    30    72 1
    78    35    73 1
    79    35    74 1
    80    43    75 1
    81    41    76 1
    82    42    77 1
@<TRIPOS>SUBSTRUCTURE
     1 PFY         1 TEMP              0 ****  ****    0 ROOT
