@<TRIPOS>MOLECULE
PFZ
   44    45     1     0     0
SMALL
bcc


@<TRIPOS>ATOM
      1 C1         -0.0880   -0.0270   -0.0060 c3        1 PFZ      0.189100
      2 O2          1.3400   -0.0000   -0.0660 oh        1 PFZ     -0.599800
      3 C3         -0.5590    0.0530    1.4300 ca        1 PFZ     -0.099300
      4 C4         -0.6500    1.1500   -0.8200 c3        1 PFZ     -0.114400
      5 C5         -0.4670   -1.3770   -0.6820 c3        1 PFZ      0.052300
      6 C6         -0.0970    1.2080   -2.2280 c3        1 PFZ     -0.082400
      7 C7         -0.4620    2.5160   -2.8990 c3        1 PFZ     -0.079400
      8 C8          0.0530    2.5630   -4.3210 c3        1 PFZ     -0.079400
      9 C9         -0.3020    3.8730   -4.9920 c3        1 PFZ     -0.080400
     10 C10         0.2070    3.9240   -6.4090 c3        1 PFZ     -0.093100
     11 N11        -0.1320   -2.5500    0.0580 na        1 PFZ     -0.206900
     12 C12         0.4070    0.1470    2.4450 ca        1 PFZ     -0.100000
     13 C13         0.0570    0.2520    3.7870 ca        1 PFZ     -0.119000
     14 C14        -1.2940    0.2600    4.1450 ca        1 PFZ      0.028400
     15 C15        -2.2790    0.1440    3.1640 ca        1 PFZ     -0.123000
     16 C16        -1.9090    0.0340    1.8170 ca        1 PFZ      0.037400
     17 C17        -1.0230   -3.4970    0.5780 cc        1 PFZ     -0.258600
     18 C18        -0.2290   -4.4810    1.1920 cd        1 PFZ      0.289200
     19 N19         1.1230   -4.1570    1.0660 nd        1 PFZ     -0.675000
     20 C20         1.1610   -2.9940    0.3840 cc        1 PFZ      0.403400
     21 CL21       -3.1960   -0.1430    0.7110 cl        1 PFZ     -0.096400
     22 CL22       -1.7410    0.4000    5.7760 cl        1 PFZ     -0.078400
     23 HO2         1.6190    0.9060    0.1160 ho        1 PFZ      0.409000
     24 H41        -1.7670    1.0800   -0.8640 hc        1 PFZ      0.060700
     25 H42        -0.3940    2.0990   -0.2790 hc        1 PFZ      0.060700
     26 H51         0.0870   -1.4090   -1.6670 h1        1 PFZ      0.075700
     27 H52        -1.5740   -1.3720   -0.8840 h1        1 PFZ      0.075700
     28 H61        -0.5050    0.3540   -2.8310 hc        1 PFZ      0.048200
     29 H62         1.0200    1.0920   -2.2050 hc        1 PFZ      0.048200
     30 H71        -0.0330    3.3730   -2.3150 hc        1 PFZ      0.040700
     31 H72        -1.5770    2.6410   -2.8970 hc        1 PFZ      0.040700
     32 H81        -0.3810    1.7110   -4.9080 hc        1 PFZ      0.041200
     33 H82         1.1680    2.4310   -4.3220 hc        1 PFZ      0.041200
     34 H91        -1.4170    4.0050   -4.9870 hc        1 PFZ      0.038700
     35 H92         0.1330    4.7240   -4.4040 hc        1 PFZ      0.038700
     36 H101       -0.0650    4.8970   -6.8840 hc        1 PFZ      0.034033
     37 H102        1.3190    3.8190   -6.4320 hc        1 PFZ      0.034033
     38 H103       -0.2350    3.0990   -7.0170 hc        1 PFZ      0.034033
     39 H12         1.4770    0.1130    2.1820 ha        1 PFZ      0.155000
     40 H13         0.8400    0.3210    4.5570 ha        1 PFZ      0.155000
     41 H15        -3.3440    0.1330    3.4460 ha        1 PFZ      0.163000
     42 H17        -2.1010   -3.4030    0.4740 h4        1 PFZ      0.175000
     43 H18        -0.5510   -5.3850    1.7060 h4        1 PFZ      0.040100
     44 H20         2.0530   -2.4190    0.1100 h5        1 PFZ      0.071100
@<TRIPOS>BOND
     1    1    2 1   
     2    1    3 1   
     3    1    4 1   
     4    1    5 1   
     5    2   23 1   
     6    3   12 ar  
     7    3   16 ar  
     8    4    6 1   
     9    4   24 1   
    10    4   25 1   
    11    5   11 1   
    12    5   26 1   
    13    5   27 1   
    14    6    7 1   
    15    6   28 1   
    16    6   29 1   
    17    7    8 1   
    18    7   30 1   
    19    7   31 1   
    20    8    9 1   
    21    8   32 1   
    22    8   33 1   
    23    9   10 1   
    24    9   34 1   
    25    9   35 1   
    26   10   36 1   
    27   10   37 1   
    28   10   38 1   
    29   11   17 1   
    30   11   20 1   
    31   12   13 ar  
    32   12   39 1   
    33   13   14 ar  
    34   13   40 1   
    35   14   15 ar  
    36   14   22 1   
    37   15   16 ar  
    38   15   41 1   
    39   16   21 1   
    40   17   18 2   
    41   17   42 1   
    42   18   19 1   
    43   18   43 1   
    44   19   20 2   
    45   20   44 1   
@<TRIPOS>SUBSTRUCTURE
     1 PFZ         1 TEMP              0 ****  ****    0 ROOT
