@<TRIPOS>MOLECULE
PFZ
   44    45     1     0     0
SMALL
bcc


@<TRIPOS>ATOM
      1 C1         -0.0890   -0.0280   -0.0070 c3        1 PFZ      0.189100
      2 O2          1.3400   -0.0040   -0.0700 oh        1 PFZ     -0.599800
      3 C3         -0.5560    0.0540    1.4300 ca        1 PFZ     -0.099300
      4 C4         -0.6500    1.1490   -0.8210 c3        1 PFZ     -0.114400
      5 C5         -0.4720   -1.3770   -0.6820 c3        1 PFZ      0.052300
      6 C6         -0.0980    1.2070   -2.2290 c3        1 PFZ     -0.082400
      7 C7         -0.4640    2.5150   -2.8990 c3        1 PFZ     -0.079400
      8 C8          0.0520    2.5630   -4.3220 c3        1 PFZ     -0.079400
      9 C9         -0.3050    3.8730   -4.9920 c3        1 PFZ     -0.080400
     10 C10         0.2060    3.9250   -6.4080 c3        1 PFZ     -0.093100
     11 N11        -0.1370   -2.5510    0.0580 na        1 PFZ     -0.206900
     12 C12         0.4120    0.1450    2.4430 ca        1 PFZ     -0.100000
     13 C13         0.0660    0.2520    3.7850 ca        1 PFZ     -0.119000
     14 C14        -1.2840    0.2630    4.1470 ca        1 PFZ      0.028400
     15 C15        -2.2710    0.1490    3.1680 ca        1 PFZ     -0.123000
     16 C16        -1.9050    0.0380    1.8210 ca        1 PFZ      0.037400
     17 C17        -1.0280   -3.4960    0.5810 cc        1 PFZ     -0.258600
     18 C18        -0.2340   -4.4810    1.1930 cd        1 PFZ      0.289200
     19 N19         1.1180   -4.1590    1.0630 nd        1 PFZ     -0.675000
     20 C20         1.1570   -2.9970    0.3810 cc        1 PFZ      0.403400
     21 CL21       -3.1950   -0.1380    0.7170 cl        1 PFZ     -0.096400
     22 CL22       -1.7270    0.4050    5.7790 cl        1 PFZ     -0.078400
     23 HO2         1.6210    0.9020    0.1110 ho        1 PFZ      0.409000
     24 H41        -0.3920    2.0990   -0.2790 hc        1 PFZ      0.060700
     25 H42        -1.7670    1.0810   -0.8630 hc        1 PFZ      0.060700
     26 H51        -1.5790   -1.3710   -0.8800 h1        1 PFZ      0.075700
     27 H52         0.0800   -1.4100   -1.6670 h1        1 PFZ      0.075700
     28 H61         1.0180    1.0910   -2.2080 hc        1 PFZ      0.048200
     29 H62        -0.5080    0.3530   -2.8310 hc        1 PFZ      0.048200
     30 H71        -0.0350    3.3720   -2.3150 hc        1 PFZ      0.040700
     31 H72        -1.5790    2.6400   -2.8980 hc        1 PFZ      0.040700
     32 H81         1.1660    2.4320   -4.3230 hc        1 PFZ      0.041200
     33 H82        -0.3810    1.7110   -4.9080 hc        1 PFZ      0.041200
     34 H91         0.1280    4.7240   -4.4030 hc        1 PFZ      0.038700
     35 H92        -1.4190    4.0030   -4.9880 hc        1 PFZ      0.038700
     36 H101        1.3180    3.8220   -6.4310 hc        1 PFZ      0.034033
     37 H102       -0.0680    4.8980   -6.8840 hc        1 PFZ      0.034033
     38 H103       -0.2340    3.0990   -7.0180 hc        1 PFZ      0.034033
     39 H12         1.4820    0.1090    2.1770 ha        1 PFZ      0.155000
     40 H13         0.8510    0.3190    4.5540 ha        1 PFZ      0.155000
     41 H15        -3.3360    0.1410    3.4530 ha        1 PFZ      0.163000
     42 H17        -2.1060   -3.4000    0.4800 h4        1 PFZ      0.175000
     43 H18        -0.5560   -5.3850    1.7080 h4        1 PFZ      0.040100
     44 H20         2.0490   -2.4240    0.1040 h5        1 PFZ      0.071100
@<TRIPOS>BOND
     1    1    2 1   
     2    1    3 1   
     3    1    4 1   
     4    1    5 1   
     5    2   23 1   
     6    3   12 ar  
     7    3   16 ar  
     8    4    6 1   
     9    4   24 1   
    10    4   25 1   
    11    5   11 1   
    12    5   26 1   
    13    5   27 1   
    14    6    7 1   
    15    6   28 1   
    16    6   29 1   
    17    7    8 1   
    18    7   30 1   
    19    7   31 1   
    20    8    9 1   
    21    8   32 1   
    22    8   33 1   
    23    9   10 1   
    24    9   34 1   
    25    9   35 1   
    26   10   36 1   
    27   10   37 1   
    28   10   38 1   
    29   11   17 1   
    30   11   20 1   
    31   12   13 ar  
    32   12   39 1   
    33   13   14 ar  
    34   13   40 1   
    35   14   15 ar  
    36   14   22 1   
    37   15   16 ar  
    38   15   41 1   
    39   16   21 1   
    40   17   18 2   
    41   17   42 1   
    42   18   19 1   
    43   18   43 1   
    44   19   20 2   
    45   20   44 1   
@<TRIPOS>SUBSTRUCTURE
     1 PFZ         1 TEMP              0 ****  ****    0 ROOT
