@<TRIPOS>MOLECULE
molecule
   44    45     1     0     0
SMALL
bcc


@<TRIPOS>ATOM
      1 C1           0.0000     0.0000     0.0000 c3         1 PFZ       0.185100
      2 O2           1.4280     0.0000     0.0000 oh         1 PFZ      -0.593800
      3 C3          -0.5040     0.0000     1.4190 ca         1 PFZ      -0.103300
      4 C4          -0.5090     1.2490    -0.7220 c3         1 PFZ      -0.125400
      5 C5          -0.5090    -1.2490    -0.7220 c3         1 PFZ       0.047300
      6 C6           0.0280     1.2660    -2.1540 c3         1 PFZ      -0.083400
      7 C7          -0.4550     2.5310    -2.8660 c3         1 PFZ      -0.081400
      8 C8           0.0820     2.5470    -4.2990 c3         1 PFZ      -0.081400
      9 C9          -0.4020     3.8130    -5.0100 c3         1 PFZ      -0.084400
     10 C10          0.1360     3.8290    -6.4420 c3         1 PFZ      -0.092100
     11 N11         -0.1290    -2.4410     0.0370 na         1 PFZ      -0.182900
     12 C12          0.3950    -0.0010     2.4700 ca         1 PFZ      -0.087000
     13 C13         -0.0670    -0.0010     3.7730 ca         1 PFZ      -0.112000
     14 C14         -1.4270    -0.0010     4.0260 ca         1 PFZ       0.038400
     15 C15         -2.3250    -0.0010     2.9750 ca         1 PFZ      -0.114000
     16 C16         -1.8630     0.0060     1.6710 ca         1 PFZ       0.034400
     17 C17         -0.9060    -3.1070     0.9460 cc         1 PFZ      -0.283600
     18 C18         -0.1710    -4.1390     1.4050 cd         1 PFZ       0.309200
     19 N19          1.0220    -4.1030     0.7930 nd         1 PFZ      -0.705000
     20 C20          1.0520    -3.0920    -0.0320 cc         1 PFZ       0.409400
     21 Cl21        -2.9900     0.0070     0.3510 cl         1 PFZ      -0.100400
     22 Cl22        -2.0060    -0.0020     5.6630 cl         1 PFZ      -0.093400
     23 HO2          1.7430     0.8570     0.2350 ho         1 PFZ       0.411000
     24 H41         -0.1680     2.1330    -0.1980 hc         1 PFZ       0.064200
     25 H42         -1.5920     1.2370    -0.7430 hc         1 PFZ       0.064200
     26 H51         -1.5880    -1.2030    -0.8060 h1         1 PFZ       0.082700
     27 H52         -0.0720    -1.2960    -1.7120 h1         1 PFZ       0.082700
     28 H61         -0.3320     0.3930    -2.6850 hc         1 PFZ       0.047700
     29 H62          1.1110     1.2550    -2.1340 hc         1 PFZ       0.047700
     30 H71         -1.5380     2.5420    -2.8860 hc         1 PFZ       0.042700
     31 H72         -0.0940     3.4030    -2.3350 hc         1 PFZ       0.042700
     32 H81         -0.2790     1.6750    -4.8300 hc         1 PFZ       0.042700
     33 H82          1.1650     2.5360    -4.2790 hc         1 PFZ       0.042700
     34 H91         -0.0410     4.6860    -4.4800 hc         1 PFZ       0.040700
     35 H92         -1.4850     3.8240    -5.0310 hc         1 PFZ       0.040700
     36 H101        -0.2240     2.9550    -6.9730 hc         1 PFZ       0.033700
     37 H102        -0.2060     4.7240    -6.9470 hc         1 PFZ       0.033700
     38 H103         1.2190     3.8180    -6.4220 hc         1 PFZ       0.033700
     39 H12          1.4600    -0.0000     2.2720 ha         1 PFZ       0.159000
     40 H13          0.6370    -0.0010     4.5970 ha         1 PFZ       0.153000
     41 H15         -3.3900     0.0010     3.1720 ha         1 PFZ       0.159000
     42 H17         -1.9180    -2.8540     1.2390 h4         1 PFZ       0.171000
     43 H18         -0.4880    -4.8680     2.1410 h4         1 PFZ       0.038100
     44 H20          1.8890    -2.8160    -0.6620 h5         1 PFZ       0.068100
@<TRIPOS>BOND
     1     1     2 1
     2     1     3 1
     3     1     4 1
     4     1     5 1
     5     2    23 1
     6     3    12 ar
     7     3    16 ar
     8     4     6 1
     9     4    24 1
    10     4    25 1
    11     5    11 1
    12     5    26 1
    13     5    27 1
    14     6     7 1
    15     6    28 1
    16     6    29 1
    17     7     8 1
    18     7    30 1
    19     7    31 1
    20     8     9 1
    21     8    32 1
    22     8    33 1
    23     9    10 1
    24     9    34 1
    25     9    35 1
    26    10    36 1
    27    10    37 1
    28    10    38 1
    29    11    17 1
    30    11    20 1
    31    12    13 ar
    32    12    39 1
    33    13    14 ar
    34    13    40 1
    35    14    15 ar
    36    14    22 1
    37    15    16 ar
    38    15    41 1
    39    16    21 1
    40    17    18 2
    41    17    42 1
    42    18    19 1
    43    18    43 1
    44    19    20 2
    45    20    44 1
@<TRIPOS>SUBSTRUCTURE
     1 PFZ         1 TEMP              0 ****  ****    0 ROOT
