@<TRIPOS>MOLECULE
molecule
   20    19     1     0     0
SMALL
bcc


@<TRIPOS>ATOM
      1 C5           0.0000     0.0000     0.0000 c3         1 PG0       0.115700
      2 O2           1.4280     0.0000     0.0000 os         1 PG0      -0.398600
      3 C4           1.8420     0.0000     1.3670 c3         1 PG0       0.126400
      4 C3           3.3700     0.0000     1.4380 c3         1 PG0       0.125400
      5 O1           3.8720     1.2220     0.8920 os         1 PG0      -0.384600
      6 C2           5.2970     1.1610     0.9860 c3         1 PG0       0.128400
      7 C1           5.9010     2.4450     0.4140 c3         1 PG0       0.141400
      8 OTT          5.5150     3.5560     1.2270 oh         1 PG0      -0.600800
      9 H51         -0.3610    -0.8840     0.5110 h1         1 PG0       0.030033
     10 H52         -0.3610     0.8850     0.5100 h1         1 PG0       0.030033
     11 H53         -0.3610    -0.0010    -1.0210 h1         1 PG0       0.030033
     12 H41          1.4580    -0.8850     1.8610 h1         1 PG0       0.035200
     13 H42          1.4580     0.8840     1.8610 h1         1 PG0       0.035200
     14 H31          3.6840    -0.0890     2.4720 h1         1 PG0       0.032700
     15 H32          3.7590    -0.8360     0.8700 h1         1 PG0       0.032700
     16 H21          5.5870     1.0570     2.0250 h1         1 PG0       0.032700
     17 H22          5.6610     0.3100     0.4230 h1         1 PG0       0.032700
     18 H11          6.9810     2.3630     0.4040 h1         1 PG0       0.029200
     19 H12          5.5410     2.5950    -0.5970 h1         1 PG0       0.029200
     20 HTT          5.9590     4.3330     0.9290 ho         1 PG0       0.399000
@<TRIPOS>BOND
     1     1     2 1
     2     1     9 1
     3     1    10 1
     4     1    11 1
     5     2     3 1
     6     3     4 1
     7     3    12 1
     8     3    13 1
     9     4     5 1
    10     4    14 1
    11     4    15 1
    12     5     6 1
    13     6     7 1
    14     6    16 1
    15     6    17 1
    16     7     8 1
    17     7    18 1
    18     7    19 1
    19     8    20 1
@<TRIPOS>SUBSTRUCTURE
     1 PG0         1 TEMP              0 ****  ****    0 ROOT
