@<TRIPOS>MOLECULE
PG0
   20    19     1     0     0
SMALL
bcc


@<TRIPOS>ATOM
      1 C5          0.0050   -0.1630   -0.0100 c3        1 PG0      0.116700
      2 O2          1.3790   -0.4200    0.2250 os        1 PG0     -0.424600
      3 C4          1.8890    0.3040    1.3430 c3        1 PG0      0.123400
      4 C3          3.3930    0.0500    1.3730 c3        1 PG0      0.129400
      5 O1          4.0180    1.2780    1.0040 os        1 PG0     -0.438600
      6 C2          5.4240    1.1360    0.8150 c3        1 PG0      0.087400
      7 C1          5.9510    2.5290    0.4860 c3        1 PG0      0.131400
      8 OTT         5.8190    3.4080    1.5840 oh        1 PG0     -0.600800
      9 H51        -0.2500   -0.7960   -0.8950 h1        1 PG0      0.033700
     10 H52        -0.1600    0.9190   -0.2410 h1        1 PG0      0.033700
     11 H53        -0.6090   -0.4600    0.8760 h1        1 PG0      0.033700
     12 H41         1.6710    1.3990    1.2280 h1        1 PG0      0.042700
     13 H42         1.4080   -0.0790    2.2810 h1        1 PG0      0.042700
     14 H31         3.7240   -0.2330    2.4060 h1        1 PG0      0.044700
     15 H32         3.6740   -0.7610    0.6500 h1        1 PG0      0.044700
     16 H21         5.6250    0.4280   -0.0320 h1        1 PG0      0.039700
     17 H22         5.8940    0.7440    1.7550 h1        1 PG0      0.039700
     18 H11         5.4100    2.9430   -0.4060 h1        1 PG0      0.053700
     19 H12         7.0530    2.4800    0.2810 h1        1 PG0      0.053700
     20 HTT         4.8840    3.4180    1.8250 ho        1 PG0      0.412000
@<TRIPOS>BOND
     1    1    2 1   
     2    1    9 1   
     3    1   10 1   
     4    1   11 1   
     5    2    3 1   
     6    3    4 1   
     7    3   12 1   
     8    3   13 1   
     9    4    5 1   
    10    4   14 1   
    11    4   15 1   
    12    5    6 1   
    13    6    7 1   
    14    6   16 1   
    15    6   17 1   
    16    7    8 1   
    17    7   18 1   
    18    7   19 1   
    19    8   20 1   
@<TRIPOS>SUBSTRUCTURE
     1 PG0         1 TEMP              0 ****  ****    0 ROOT
