@<TRIPOS>MOLECULE
PG2
   56    56     1     0     0
SMALL
bcc


@<TRIPOS>ATOM
      1 C1          5.3840    1.3270    1.6540 c         1 PG2      0.904600
      2 C2          3.9610    1.5600    2.1760 c3        1 PG2     -0.190400
      3 C3          3.4220    0.3010    2.8160 c3        1 PG2     -0.054400
      4 C4          3.0790   -0.7640    1.7840 c3        1 PG2     -0.056200
      5 C5          3.1490   -2.1140    2.3910 c2        1 PG2     -0.166200
      6 C6          4.0280   -3.0830    2.1210 c2        1 PG2     -0.164200
      7 C7          5.1120   -3.0870    1.1080 c3        1 PG2     -0.021200
      8 C8          6.1710   -2.0260    1.3080 c3        1 PG2     -0.066700
      9 C9          6.8590   -2.0290    2.6850 c3        1 PG2      0.146100
     10 C10         8.2370   -1.4060    2.4270 c3        1 PG2     -0.232400
     11 C11         8.5780   -1.7670    1.0090 c         1 PG2      0.607100
     12 C12         7.3010   -2.1320    0.2620 c3        1 PG2     -0.136500
     13 C13         7.0690   -1.2130   -0.8830 c2        1 PG2     -0.120200
     14 C14         7.2900   -1.4950   -2.1690 c2        1 PG2     -0.250200
     15 C15         7.8320   -2.7730   -2.7160 c3        1 PG2      0.180300
     16 C16         9.3590   -2.7650   -2.7830 c3        1 PG2     -0.076400
     17 C17         9.8910   -1.6920   -3.7060 c3        1 PG2     -0.073400
     18 C18        11.4030   -1.7240   -3.7660 c3        1 PG2     -0.078400
     19 C19        11.9410   -0.6450   -4.6830 c3        1 PG2     -0.080400
     20 C20        13.4460   -0.6740   -4.7500 c3        1 PG2     -0.090100
     21 O1          6.3150    1.1200    2.4890 o         1 PG2     -0.861300
     22 O2          5.5720    1.3170    0.4010 o         1 PG2     -0.861300
     23 O3          6.9710   -3.3630    3.1690 oh        1 PG2     -0.613800
     24 O4          9.7140   -1.8140    0.5350 o         1 PG2     -0.567100
     25 O5          7.3520   -3.0230   -4.0390 oh        1 PG2     -0.618800
     26 H21         3.9910    2.3810    2.9360 hc        1 PG2      0.028200
     27 H22         3.3020    1.8830    1.3320 hc        1 PG2      0.028200
     28 H31         2.5080    0.5350    3.4220 hc        1 PG2      0.026700
     29 H32         4.2030   -0.0950    3.5210 hc        1 PG2      0.026700
     30 H41         3.7750   -0.6700    0.9060 hc        1 PG2      0.051700
     31 H42         2.0400   -0.5880    1.3950 hc        1 PG2      0.051700
     32 H5          2.3900   -2.2890    3.1740 ha        1 PG2      0.095000
     33 H6          3.9670   -4.0230    2.6990 ha        1 PG2      0.101000
     34 H71         4.6620   -2.9390    0.0870 hc        1 PG2      0.039200
     35 H72         5.6060   -4.0970    1.1160 hc        1 PG2      0.039200
     36 H8          5.7030   -0.9980    1.2180 hc        1 PG2      0.127700
     37 H9          6.2700   -1.4070    3.4140 h1        1 PG2      0.075700
     38 H101        9.0120   -1.7570    3.1460 hc        1 PG2      0.102700
     39 H102        8.1280   -0.2830    2.4950 hc        1 PG2      0.102700
     40 H12         7.4050   -3.1990   -0.0810 hc        1 PG2      0.063700
     41 H13         6.6730   -0.2110   -0.5880 ha        1 PG2      0.210000
     42 H14         7.0850   -0.7280   -2.9360 ha        1 PG2      0.126000
     43 H15         7.5070   -3.6460   -2.0750 h1        1 PG2      0.028700
     44 H161        9.7060   -3.7690   -3.1380 hc        1 PG2      0.055200
     45 H162        9.7450   -2.6010   -1.7400 hc        1 PG2      0.055200
     46 H171        9.4640   -1.8400   -4.7330 hc        1 PG2      0.047200
     47 H172        9.5490   -0.6860   -3.3440 hc        1 PG2      0.047200
     48 H181       11.8220   -1.5830   -2.7340 hc        1 PG2      0.037700
     49 H182       11.7460   -2.7290   -4.1280 hc        1 PG2      0.037700
     50 H191       11.5990    0.3580   -4.3160 hc        1 PG2      0.037700
     51 H192       11.5150   -0.7830   -5.7110 hc        1 PG2      0.037700
     52 H201       13.8050   -1.6580   -5.1370 hc        1 PG2      0.026367
     53 H202       13.8880   -0.5150   -3.7370 hc        1 PG2      0.026367
     54 H203       13.8220    0.1300   -5.4290 hc        1 PG2      0.026367
     55 HO3         7.4130   -3.2990    4.0230 ho        1 PG2      0.386000
     56 HO5         6.4220   -2.7700   -4.0490 ho        1 PG2      0.397000
@<TRIPOS>BOND
     1    1    2 1   
     2    1   21 1   
     3    1   22 1   
     4    2    3 1   
     5    2   26 1   
     6    2   27 1   
     7    3    4 1   
     8    3   28 1   
     9    3   29 1   
    10    4    5 1   
    11    4   30 1   
    12    4   31 1   
    13    5    6 2   
    14    5   32 1   
    15    6    7 1   
    16    6   33 1   
    17    7    8 1   
    18    7   34 1   
    19    7   35 1   
    20    8    9 1   
    21    8   12 1   
    22    8   36 1   
    23    9   10 1   
    24    9   23 1   
    25    9   37 1   
    26   10   11 1   
    27   10   38 1   
    28   10   39 1   
    29   11   12 1   
    30   11   24 2   
    31   12   13 1   
    32   12   40 1   
    33   13   14 2   
    34   13   41 1   
    35   14   15 1   
    36   14   42 1   
    37   15   16 1   
    38   15   25 1   
    39   15   43 1   
    40   16   17 1   
    41   16   44 1   
    42   16   45 1   
    43   17   18 1   
    44   17   46 1   
    45   17   47 1   
    46   18   19 1   
    47   18   48 1   
    48   18   49 1   
    49   19   20 1   
    50   19   50 1   
    51   19   51 1   
    52   20   52 1   
    53   20   53 1   
    54   20   54 1   
    55   23   55 1   
    56   25   56 1   
@<TRIPOS>SUBSTRUCTURE
     1 PG2         1 TEMP              0 ****  ****    0 ROOT
