@<TRIPOS>MOLECULE
molecule
   56    56     1     0     0
SMALL
bcc


@<TRIPOS>ATOM
      1 C1           0.0000     0.0000     0.0000 c          1 PG2       0.892600
      2 C2           1.5070     0.0000     0.0000 c3         1 PG2      -0.187400
      3 C3           2.0180     0.0000     1.4430 c3         1 PG2      -0.014400
      4 C4           3.5470     0.0000     1.4420 c3         1 PG2      -0.155200
      5 C5           4.0510    -0.0000     2.8620 c2         1 PG2      -0.315200
      6 C6           4.9030    -0.9140     3.2550 c2         1 PG2      -0.414200
      7 C7           5.5100    -1.8600     2.2520 c3         1 PG2      -0.120200
      8 C8           7.0340    -1.8380     2.3880 c3         1 PG2      -0.009700
      9 C9           7.4570    -2.4720     3.7310 c3         1 PG2       0.163100
     10 C10          8.7470    -3.2540     3.3780 c3         1 PG2      -0.232400
     11 C11          8.4400    -3.8120     1.9920 c          1 PG2       0.602100
     12 C12          7.6770    -2.7020     1.2890 c3         1 PG2      -0.155500
     13 C13          8.6230    -1.8680     0.4650 c2         1 PG2      -0.148200
     14 C14          8.4290    -1.7380    -0.8250 c2         1 PG2      -0.192200
     15 C15          9.3750    -0.9040    -1.6490 c3         1 PG2       0.181300
     16 C16          9.9230    -1.7440    -2.8040 c3         1 PG2      -0.081400
     17 C17         10.7850    -0.8640    -3.7110 c3         1 PG2      -0.083400
     18 C18         11.3330    -1.7050    -4.8650 c3         1 PG2      -0.080400
     19 C19         12.1950    -0.8260    -5.7730 c3         1 PG2      -0.084400
     20 C20         12.7430    -1.6660    -6.9280 c3         1 PG2      -0.092100
     21 O1          -0.6710    -0.0010    -1.1630 o          1 PG2      -0.846800
     22 O2          -0.6040    -0.0000     1.0470 o          1 PG2      -0.846800
     23 O3           6.4440    -3.3580     4.2100 oh         1 PG2      -0.592800
     24 O4           8.7370    -4.8960     1.5510 o          1 PG2      -0.506100
     25 O5          10.4570    -0.4590    -0.8270 oh         1 PG2      -0.607800
     26 H21          1.8680    -0.8840    -0.5110 hc         1 PG2       0.027700
     27 H22          1.8680     0.8840    -0.5110 hc         1 PG2       0.027700
     28 H31          1.6570     0.8840     1.9540 hc         1 PG2       0.065200
     29 H32          1.6570    -0.8850     1.9530 hc         1 PG2       0.065200
     30 H41          3.9080     0.8850     0.9310 hc         1 PG2       0.027700
     31 H42          3.9080    -0.8840     0.9300 hc         1 PG2       0.027700
     32 H5           4.6200     0.4680     2.0690 ha         1 PG2       0.337000
     33 H6           4.3800    -1.8110     2.9470 ha         1 PG2       0.329000
     34 H71          5.2330    -1.5520     1.2510 hc         1 PG2       0.043700
     35 H72          5.1460    -2.8640     2.4350 hc         1 PG2       0.043700
     36 H8           7.4040    -0.8220     2.3250 hc         1 PG2       0.069700
     37 H9           7.6710    -1.7010     4.4610 h1         1 PG2       0.056700
     38 H101         8.9120    -4.0570     4.0850 hc         1 PG2       0.071700
     39 H102         9.6000    -2.5860     3.3400 hc         1 PG2       0.071700
     40 H12          6.9060    -3.1280     0.6580 hc         1 PG2       0.083700
     41 H13          9.4650    -1.3770     0.9380 ha         1 PG2       0.143000
     42 H14          7.5880    -2.2290    -1.2980 ha         1 PG2       0.137000
     43 H15          8.8470    -0.0450    -2.0460 h1         1 PG2       0.039700
     44 H161        10.5250    -2.5530    -2.4080 hc         1 PG2       0.056200
     45 H162         9.0990    -2.1540    -3.3750 hc         1 PG2       0.056200
     46 H171        10.1830    -0.0560    -4.1080 hc         1 PG2       0.043200
     47 H172        11.6090    -0.4540    -3.1400 hc         1 PG2       0.043200
     48 H181        11.9360    -2.5140    -4.4690 hc         1 PG2       0.042700
     49 H182        10.5090    -2.1150    -5.4360 hc         1 PG2       0.042700
     50 H191        11.5930    -0.0170    -6.1690 hc         1 PG2       0.038700
     51 H192        13.0190    -0.4160    -5.2020 hc         1 PG2       0.038700
     52 H201        13.3530    -1.0430    -7.5710 hc         1 PG2       0.031033
     53 H202        11.9190    -2.0760    -7.4990 hc         1 PG2       0.031033
     54 H203        13.3450    -2.4750    -6.5320 hc         1 PG2       0.031033
     55 HO3          6.5480    -3.4820     5.1390 ho         1 PG2       0.406000
     56 HO5         10.3790     0.4690    -0.6800 ho         1 PG2       0.400000
@<TRIPOS>BOND
     1     1     2 1
     2     1    21 1
     3     1    22 1
     4     2     3 1
     5     2    26 1
     6     2    27 1
     7     3     4 1
     8     3    28 1
     9     3    29 1
    10     4     5 1
    11     4    30 1
    12     4    31 1
    13     5     6 2
    14     5    32 1
    15     6     7 1
    16     6    33 1
    17     7     8 1
    18     7    34 1
    19     7    35 1
    20     8     9 1
    21     8    12 1
    22     8    36 1
    23     9    10 1
    24     9    23 1
    25     9    37 1
    26    10    11 1
    27    10    38 1
    28    10    39 1
    29    11    12 1
    30    11    24 2
    31    12    13 1
    32    12    40 1
    33    13    14 2
    34    13    41 1
    35    14    15 1
    36    14    42 1
    37    15    16 1
    38    15    25 1
    39    15    43 1
    40    16    17 1
    41    16    44 1
    42    16    45 1
    43    17    18 1
    44    17    46 1
    45    17    47 1
    46    18    19 1
    47    18    48 1
    48    18    49 1
    49    19    20 1
    50    19    50 1
    51    19    51 1
    52    20    52 1
    53    20    53 1
    54    20    54 1
    55    23    55 1
    56    25    56 1
@<TRIPOS>SUBSTRUCTURE
     1 PG2         1 TEMP              0 ****  ****    0 ROOT
