@<TRIPOS>MOLECULE
molecule
   21    20     1     0     0
SMALL
bcc


@<TRIPOS>ATOM
      1 OA           0.0000     0.0000     0.0000 oh         1 PG3      -0.585800
      2 CB           1.4300     0.0000     0.0000 c3         1 PG3       0.160400
      3 CG           1.9380     0.0000     1.4430 c3         1 PG3      -0.103400
      4 CD           3.4680    -0.0000     1.4440 c3         1 PG3      -0.005700
      5 NE           3.9560    -0.0000     2.8260 nu         1 PG3      -0.290100
      6 CZ           5.3080    -0.0000     3.0770 c2         1 PG3       0.453700
      7 NH1          6.1780    -0.0000     2.0600 nv         1 PG3      -0.401200
      8 NH2          5.7530     0.0000     4.3390 nz         1 PG3      -0.784600
      9 HA          -0.3140     0.0020    -0.8890 ho         1 PG3       0.445000
     10 HB1          1.7910     0.8850    -0.5100 h1         1 PG3       0.036700
     11 HB2          1.7910    -0.8850    -0.5100 h1         1 PG3       0.036700
     12 HG1          1.5770     0.8850     1.9540 hc         1 PG3       0.089200
     13 HG2          1.5770    -0.8850     1.9540 hc         1 PG3       0.089200
     14 HD1          3.8290    -0.8850     0.9340 h1         1 PG3       0.101200
     15 HD2          3.8290     0.8850     0.9340 h1         1 PG3       0.101200
     16 HE           3.3050    -0.0020     3.5860 hn         1 PG3       0.358700
     17 HH11         7.1620    -0.0000     2.2430 hn         1 PG3       0.370700
     18 HH12         5.8450    -0.0000     1.1160 hn         1 PG3       0.370700
     19 HH21         6.6600     0.4230     4.3730 hn         1 PG3       0.518133
     20 HH22         5.1220     0.5180     4.9170 hn         1 PG3       0.518133
     21 HH23         5.8130    -0.9420     4.6720 hn         1 PG3       0.518133
@<TRIPOS>BOND
     1     1     2 1
     2     1     9 1
     3     2     3 1
     4     2    10 1
     5     2    11 1
     6     3     4 1
     7     3    12 1
     8     3    13 1
     9     4     5 1
    10     4    14 1
    11     4    15 1
    12     5     6 2
    13     5    16 1
    14     6     7 1
    15     6     8 1
    16     7    17 1
    17     7    18 1
    18     8    19 1
    19     8    20 1
    20    21     8 1
@<TRIPOS>SUBSTRUCTURE
     1 PG3         1 TEMP              0 ****  ****    0 ROOT
