@<TRIPOS>MOLECULE
PG4
   31    30     1     0     0
SMALL
bcc


@<TRIPOS>ATOM
      1 O1         -0.6490    1.3090    1.3220 oh        1 PG4     -0.599800
      2 C1          0.0820    0.5740    0.3630 c3        1 PG4      0.131400
      3 C2          1.4470    0.1520    0.8980 c3        1 PG4      0.087400
      4 O2          1.1910   -0.7750    1.9500 os        1 PG4     -0.438600
      5 C3          2.3890   -1.2190    2.5860 c3        1 PG4      0.129400
      6 C4          1.9840   -2.3320    3.5470 c3        1 PG4      0.127400
      7 O3          2.4050   -3.5560    2.9490 os        1 PG4     -0.427600
      8 C5          1.9480   -4.6960    3.6720 c3        1 PG4      0.127400
      9 C6          2.6100   -5.9100    3.0290 c3        1 PG4      0.129400
     10 O4          3.6350   -6.3370    3.9250 os        1 PG4     -0.438600
     11 C7          4.4490   -7.3670    3.3670 c3        1 PG4      0.087400
     12 C8          5.4470   -7.7530    4.4540 c3        1 PG4      0.131400
     13 O5          4.8070   -8.3580    5.5580 oh        1 PG4     -0.599800
     14 HO1        -0.7210    0.7510    2.1080 ho        1 PG4      0.412000
     15 H11        -0.5010   -0.3310    0.0440 h1        1 PG4      0.053700
     16 H12         0.2130    1.2730   -0.5040 h1        1 PG4      0.053700
     17 H21         2.0500   -0.3420    0.0920 h1        1 PG4      0.039200
     18 H22         2.0060    1.0370    1.3010 h1        1 PG4      0.039200
     19 H31         3.1160   -1.5990    1.8200 h1        1 PG4      0.045700
     20 H32         2.8440   -0.3620    3.1480 h1        1 PG4      0.045700
     21 H41         0.8730   -2.3390    3.7040 h1        1 PG4      0.044200
     22 H42         2.5040   -2.2050    4.5320 h1        1 PG4      0.044200
     23 H51         2.2370   -4.6110    4.7540 h1        1 PG4      0.044200
     24 H52         0.8320   -4.7670    3.5830 h1        1 PG4      0.044200
     25 H61         3.0520   -5.6420    2.0330 h1        1 PG4      0.045700
     26 H62         1.8650   -6.7400    2.9020 h1        1 PG4      0.045700
     27 H71         3.8080   -8.2440    3.0850 h1        1 PG4      0.039200
     28 H72         4.9830   -6.9810    2.4600 h1        1 PG4      0.039200
     29 H81         6.0200   -6.8470    4.7880 h1        1 PG4      0.053700
     30 H82         6.1530   -8.5320    4.0620 h1        1 PG4      0.053700
     31 HO5         4.1450   -7.7310    5.8770 ho        1 PG4      0.412000
@<TRIPOS>BOND
     1    1    2 1   
     2    1   14 1   
     3    2    3 1   
     4    2   15 1   
     5    2   16 1   
     6    3    4 1   
     7    3   17 1   
     8    3   18 1   
     9    4    5 1   
    10    5    6 1   
    11    5   19 1   
    12    5   20 1   
    13    6    7 1   
    14    6   21 1   
    15    6   22 1   
    16    7    8 1   
    17    8    9 1   
    18    8   23 1   
    19    8   24 1   
    20    9   10 1   
    21    9   25 1   
    22    9   26 1   
    23   10   11 1   
    24   11   12 1   
    25   11   27 1   
    26   11   28 1   
    27   12   13 1   
    28   12   29 1   
    29   12   30 1   
    30   13   31 1   
@<TRIPOS>SUBSTRUCTURE
     1 PG4         1 TEMP              0 ****  ****    0 ROOT
