@<TRIPOS>MOLECULE
molecule
   31    30     1     0     0
SMALL
bcc


@<TRIPOS>ATOM
      1 O1           0.0000     0.0000     0.0000 oh         1 PG4      -0.598800
      2 C1           1.4280     0.0000     0.0000 c3         1 PG4       0.142400
      3 C2           1.9380     0.0000     1.4430 c3         1 PG4       0.128400
      4 O2           1.4630    -1.1660     2.1160 os         1 PG4      -0.381600
      5 C3           1.9690    -1.1080     3.4500 c3         1 PG4       0.126400
      6 C4           1.4930    -2.3350     4.2320 c3         1 PG4       0.126900
      7 O3           1.9690    -3.5200     3.5920 os         1 PG4      -0.383600
      8 C5           1.4950    -4.6240     4.3640 c3         1 PG4       0.126900
      9 C6           1.9730    -5.9320     3.7310 c3         1 PG4       0.126400
     10 O4           3.4010    -5.9510     3.6990 os         1 PG4      -0.381600
     11 C7           3.7840    -7.1910     3.1010 c3         1 PG4       0.128400
     12 C8           5.3090    -7.2770     3.0370 c3         1 PG4       0.142400
     13 O5           5.8470    -7.2010     4.3590 oh         1 PG4      -0.598800
     14 HO1         -0.3140     0.0910    -0.8840 ho         1 PG4       0.398000
     15 H11          1.7900    -0.8850    -0.5110 h1         1 PG4       0.027700
     16 H12          1.7900     0.8850    -0.5110 h1         1 PG4       0.027700
     17 H21          3.0210     0.0010     1.4430 h1         1 PG4       0.031700
     18 H22          1.5760     0.8840     1.9530 h1         1 PG4       0.031700
     19 H31          3.0510    -1.0930     3.4250 h1         1 PG4       0.032700
     20 H32          1.6070    -0.2090     3.9340 h1         1 PG4       0.032700
     21 H41          0.4100    -2.3490     4.2580 h1         1 PG4       0.033200
     22 H42          1.8780    -2.2900     5.2430 h1         1 PG4       0.033200
     23 H51          0.4120    -4.6090     4.3880 h1         1 PG4       0.033200
     24 H52          1.8800    -4.5500     5.3740 h1         1 PG4       0.033200
     25 H61          1.6130    -6.7690     4.3160 h1         1 PG4       0.032700
     26 H62          1.5880    -6.0050     2.7210 h1         1 PG4       0.032700
     27 H71          3.4010    -8.0120     3.6940 h1         1 PG4       0.031700
     28 H72          3.3770    -7.2490     2.0980 h1         1 PG4       0.031700
     29 H81          5.5990    -8.2160     2.5820 h1         1 PG4       0.027700
     30 H82          5.6930    -6.4550     2.4430 h1         1 PG4       0.027700
     31 HO5          6.7780    -7.3450     4.3280 ho         1 PG4       0.398000
@<TRIPOS>BOND
     1     1     2 1
     2     1    14 1
     3     2     3 1
     4     2    15 1
     5     2    16 1
     6     3     4 1
     7     3    17 1
     8     3    18 1
     9     4     5 1
    10     5     6 1
    11     5    19 1
    12     5    20 1
    13     6     7 1
    14     6    21 1
    15     6    22 1
    16     7     8 1
    17     8     9 1
    18     8    23 1
    19     8    24 1
    20     9    10 1
    21     9    25 1
    22     9    26 1
    23    10    11 1
    24    11    12 1
    25    11    27 1
    26    11    28 1
    27    12    13 1
    28    12    29 1
    29    12    30 1
    30    13    31 1
@<TRIPOS>SUBSTRUCTURE
     1 PG4         1 TEMP              0 ****  ****    0 ROOT
