@<TRIPOS>MOLECULE
PG5
   30    29     1     0     0
SMALL
bcc


@<TRIPOS>ATOM
      1 C1          0.4170   -1.6630   -0.6980 c3        1 PG5      0.117700
      2 O1          1.4990   -1.3030    0.1420 os        1 PG5     -0.425100
      3 C2          1.3810    0.0250    0.6490 c3        1 PG5      0.123400
      4 C3          2.6790    0.3220    1.3940 c3        1 PG5      0.127400
      5 O2          3.3680    1.3070    0.6270 os        1 PG5     -0.429600
      6 C4          4.6810    1.5580    1.1260 c3        1 PG5      0.127400
      7 C5          5.2270    2.7400    0.3330 c3        1 PG5      0.127400
      8 O3          5.2130    3.8610    1.2140 os        1 PG5     -0.429600
      9 C6          5.5520    5.0750    0.5480 c3        1 PG5      0.127400
     10 C7          5.6750    6.1420    1.6310 c3        1 PG5      0.123400
     11 O4          7.0580    6.4850    1.7070 os        1 PG5     -0.425100
     12 C8          7.3410    7.3690    2.7770 c3        1 PG5      0.117700
     13 H11         0.6400   -2.7140   -1.0070 h1        1 PG5      0.032700
     14 H12         0.3710   -0.9930   -1.5930 h1        1 PG5      0.032700
     15 H13        -0.5500   -1.6160   -0.1380 h1        1 PG5      0.032700
     16 H21         1.2300    0.7510   -0.1940 h1        1 PG5      0.042700
     17 H22         0.5060    0.0750    1.3490 h1        1 PG5      0.042700
     18 H31         3.3040   -0.6060    1.4880 h1        1 PG5      0.043200
     19 H32         2.4620    0.7350    2.4140 h1        1 PG5      0.043200
     20 H41         5.3170    0.6480    0.9620 h1        1 PG5      0.043700
     21 H42         4.6400    1.7970    2.2220 h1        1 PG5      0.043700
     22 H51         6.2830    2.5390    0.0110 h1        1 PG5      0.043700
     23 H52         4.5900    2.9450   -0.5670 h1        1 PG5      0.043700
     24 H61         4.7350    5.3400   -0.1740 h1        1 PG5      0.043200
     25 H62         6.5210    4.9570   -0.0050 h1        1 PG5      0.043200
     26 H71         5.3180    5.7500    2.6200 h1        1 PG5      0.042700
     27 H72         5.0850    7.0550    1.3540 h1        1 PG5      0.042700
     28 H81         8.4430    7.5510    2.7050 h1        1 PG5      0.032700
     29 H82         6.7770    8.3270    2.6580 h1        1 PG5      0.032700
     30 H83         7.0850    6.8970    3.7580 h1        1 PG5      0.032700
@<TRIPOS>BOND
     1    1    2 1   
     2    1   13 1   
     3    1   14 1   
     4    1   15 1   
     5    2    3 1   
     6    3    4 1   
     7    3   16 1   
     8    3   17 1   
     9    4    5 1   
    10    4   18 1   
    11    4   19 1   
    12    5    6 1   
    13    6    7 1   
    14    6   20 1   
    15    6   21 1   
    16    7    8 1   
    17    7   22 1   
    18    7   23 1   
    19    8    9 1   
    20    9   10 1   
    21    9   24 1   
    22    9   25 1   
    23   10   11 1   
    24   10   26 1   
    25   10   27 1   
    26   11   12 1   
    27   12   28 1   
    28   12   29 1   
    29   12   30 1   
@<TRIPOS>SUBSTRUCTURE
     1 PG5         1 TEMP              0 ****  ****    0 ROOT
