@<TRIPOS>MOLECULE
molecule
   30    29     1     0     0
SMALL
bcc


@<TRIPOS>ATOM
      1 C1           0.0000     0.0000     0.0000 c3         1 PG5       0.114700
      2 O1           1.4290     0.0000     0.0000 os         1 PG5      -0.396600
      3 C2           1.8430     0.0000     1.3670 c3         1 PG5       0.126400
      4 C3           3.3700     0.0000     1.4380 c3         1 PG5       0.125400
      5 O2           3.8770     1.1670     0.7870 os         1 PG5      -0.383600
      6 C4           5.3020     1.1090     0.8860 c3         1 PG5       0.126400
      7 C5           5.9110     2.3350     0.2060 c3         1 PG5       0.126400
      8 O3           5.4360     3.5210     0.8460 os         1 PG5      -0.383600
      9 C6           6.0380     4.6260     0.1690 c3         1 PG5       0.125400
     10 C7           5.5690     5.9340     0.8090 c3         1 PG5       0.126400
     11 O4           5.9520     5.9530     2.1850 os         1 PG5      -0.396600
     12 C8           5.4890     7.1930     2.7250 c3         1 PG5       0.114700
     13 H11         -0.3610    -0.8850     0.5100 h1         1 PG5       0.029700
     14 H12         -0.3610     0.0010    -1.0210 h1         1 PG5       0.029700
     15 H13         -0.3610     0.8840     0.5110 h1         1 PG5       0.029700
     16 H21          1.4590    -0.8850     1.8610 h1         1 PG5       0.033700
     17 H22          1.4580     0.8840     1.8610 h1         1 PG5       0.033700
     18 H31          3.6830     0.0000     2.4750 h1         1 PG5       0.032200
     19 H32          3.7540    -0.8840     0.9450 h1         1 PG5       0.032200
     20 H41          5.6610     0.2100     0.4000 h1         1 PG5       0.032700
     21 H42          5.5910     1.0950     1.9300 h1         1 PG5       0.032700
     22 H51          6.9900     2.2910     0.2810 h1         1 PG5       0.032700
     23 H52          5.6220     2.3480    -0.8390 h1         1 PG5       0.032700
     24 H61          5.7480     4.6110    -0.8750 h1         1 PG5       0.032200
     25 H62          7.1160     4.5530     0.2450 h1         1 PG5       0.032200
     26 H71          6.0250     6.7710     0.2950 h1         1 PG5       0.033700
     27 H72          4.4910     6.0070     0.7330 h1         1 PG5       0.033700
     28 H81          4.4120     7.2510     2.6240 h1         1 PG5       0.029700
     29 H82          5.9470     8.0150     2.1870 h1         1 PG5       0.029700
     30 H83          5.7570     7.2530     3.7720 h1         1 PG5       0.029700
@<TRIPOS>BOND
     1     1     2 1
     2     1    13 1
     3     1    14 1
     4     1    15 1
     5     2     3 1
     6     3     4 1
     7     3    16 1
     8     3    17 1
     9     4     5 1
    10     4    18 1
    11     4    19 1
    12     5     6 1
    13     6     7 1
    14     6    20 1
    15     6    21 1
    16     7     8 1
    17     7    22 1
    18     7    23 1
    19     8     9 1
    20     9    10 1
    21     9    24 1
    22     9    25 1
    23    10    11 1
    24    10    26 1
    25    10    27 1
    26    11    12 1
    27    12    28 1
    28    12    29 1
    29    12    30 1
@<TRIPOS>SUBSTRUCTURE
     1 PG5         1 TEMP              0 ****  ****    0 ROOT
