@<TRIPOS>MOLECULE
molecule
   44    43     1     0     0
SMALL
bcc


@<TRIPOS>ATOM
      1 C1           0.0000     0.0000     0.0000 c3         1 PG6       0.114700
      2 O1           1.4290     0.0000     0.0000 os         1 PG6      -0.396600
      3 C2           1.8420     0.0000     1.3670 c3         1 PG6       0.126400
      4 C3           3.3690     0.0010     1.4400 c3         1 PG6       0.125400
      5 O2           3.8770     1.1670     0.7890 os         1 PG6      -0.383600
      6 C4           5.3010     1.1100     0.8890 c3         1 PG6       0.126400
      7 C5           5.9100     2.3360     0.2090 c3         1 PG6       0.126900
      8 O3           5.4360     3.5220     0.8490 os         1 PG6      -0.384600
      9 C6           6.0370     4.6260     0.1730 c3         1 PG6       0.126400
     10 C7           5.5690     5.9330     0.8130 c3         1 PG6       0.126400
     11 O4           5.9510     5.9530     2.1900 os         1 PG6      -0.384600
     12 C8           5.4870     7.1920     2.7290 c3         1 PG6       0.126900
     13 C9           5.8660     7.2770     4.2090 c3         1 PG6       0.126400
     14 O5           7.2870     7.2030     4.3410 os         1 PG6      -0.383600
     15 C10          7.5770     7.2870     5.7380 c3         1 PG6       0.125400
     16 C11          9.0900     7.2130     5.9510 c3         1 PG6       0.126400
     17 O6           9.7210     8.2980     5.2660 os         1 PG6      -0.396600
     18 C12         11.1250     8.1730     5.5020 c3         1 PG6       0.114700
     19 H11         -0.3610     0.8840     0.5110 h1         1 PG6       0.029533
     20 H12         -0.3610    -0.8850     0.5100 h1         1 PG6       0.029533
     21 H13         -0.3610     0.0010    -1.0210 h1         1 PG6       0.029533
     22 H21          1.4570     0.8840     1.8610 h1         1 PG6       0.033700
     23 H22          1.4580    -0.8850     1.8610 h1         1 PG6       0.033700
     24 H31          3.7550    -0.8840     0.9480 h1         1 PG6       0.032200
     25 H32          3.6820     0.0020     2.4770 h1         1 PG6       0.032200
     26 H41          5.5900     1.0950     1.9330 h1         1 PG6       0.032700
     27 H42          5.6620     0.2110     0.4020 h1         1 PG6       0.032700
     28 H51          6.9900     2.2920     0.2840 h1         1 PG6       0.033200
     29 H52          5.6220     2.3500    -0.8350 h1         1 PG6       0.033200
     30 H61          5.7470     4.6120    -0.8710 h1         1 PG6       0.033200
     31 H62          7.1150     4.5530     0.2490 h1         1 PG6       0.033200
     32 H71          6.0250     6.7710     0.2990 h1         1 PG6       0.033200
     33 H72          4.4900     6.0060     0.7370 h1         1 PG6       0.033200
     34 H81          5.9440     8.0140     2.1920 h1         1 PG6       0.033200
     35 H82          4.4100     7.2500     2.6290 h1         1 PG6       0.033200
     36 H91          5.5140     8.2160     4.6180 h1         1 PG6       0.032700
     37 H92          5.4100     6.4550     4.7460 h1         1 PG6       0.032700
     38 H101         7.0980     6.4650     6.2560 h1         1 PG6       0.032200
     39 H102         7.2030     8.2260     6.1280 h1         1 PG6       0.032200
     40 H111         9.3090     7.2780     7.0100 h1         1 PG6       0.033700
     41 H112         9.4640     6.2740     5.5610 h1         1 PG6       0.033700
     42 H121        11.3190     8.2250     6.5670 h1         1 PG6       0.029533
     43 H122        11.6490     8.9770     5.0000 h1         1 PG6       0.029533
     44 H123        11.4720     7.2210     5.1190 h1         1 PG6       0.029533
@<TRIPOS>BOND
     1     1     2 1
     2     1    19 1
     3     1    20 1
     4     1    21 1
     5     2     3 1
     6     3     4 1
     7     3    22 1
     8     3    23 1
     9     4     5 1
    10     4    24 1
    11     4    25 1
    12     5     6 1
    13     6     7 1
    14     6    26 1
    15     6    27 1
    16     7     8 1
    17     7    28 1
    18     7    29 1
    19     8     9 1
    20     9    10 1
    21     9    30 1
    22     9    31 1
    23    10    11 1
    24    10    32 1
    25    10    33 1
    26    11    12 1
    27    12    13 1
    28    12    34 1
    29    12    35 1
    30    13    14 1
    31    13    36 1
    32    13    37 1
    33    14    15 1
    34    15    16 1
    35    15    38 1
    36    15    39 1
    37    16    17 1
    38    16    40 1
    39    16    41 1
    40    17    18 1
    41    18    42 1
    42    18    43 1
    43    18    44 1
@<TRIPOS>SUBSTRUCTURE
     1 PG6         1 TEMP              0 ****  ****    0 ROOT
