@<TRIPOS>MOLECULE
PG6
   44    43     1     0     0
SMALL
bcc


@<TRIPOS>ATOM
      1 C1          0.1570   -1.6030   -2.0220 c3        1 PG6      0.117700
      2 O1          0.5500   -1.1780   -0.7300 os        1 PG6     -0.425600
      3 C2          0.7020    0.2380   -0.6420 c3        1 PG6      0.123400
      4 C3          1.2740    0.5270    0.7420 c3        1 PG6      0.127400
      5 O2          2.6110    0.9820    0.5400 os        1 PG6     -0.429600
      6 C4          3.3230    1.1280    1.7670 c3        1 PG6      0.127400
      7 C5          4.6560    1.7820    1.4190 c3        1 PG6      0.127400
      8 O3          4.5830    3.1270    1.8890 os        1 PG6     -0.429600
      9 C6          5.7110    3.9010    1.4860 c3        1 PG6      0.127400
     10 C7          5.5920    5.2430    2.2010 c3        1 PG6      0.127400
     11 O4          6.5880    5.2490    3.2210 os        1 PG6     -0.429600
     12 C8          6.4790    6.3850    4.0760 c3        1 PG6      0.127400
     13 C9          7.6950    6.3540    4.9960 c3        1 PG6      0.127400
     14 O5          8.5600    7.4000    4.5600 os        1 PG6     -0.429600
     15 C10         9.8150    7.3810    5.2390 c3        1 PG6      0.127400
     16 C11        10.5540    8.6470    4.8160 c3        1 PG6      0.123400
     17 O6         10.6060    9.4890    5.9670 os        1 PG6     -0.425600
     18 C12        11.1450   10.7670    5.6820 c3        1 PG6      0.117700
     19 H11         0.0700   -2.7150   -1.9360 h1        1 PG6      0.032700
     20 H12        -0.8280   -1.1540   -2.3030 h1        1 PG6      0.032700
     21 H13         0.9300   -1.3280   -2.7810 h1        1 PG6      0.032700
     22 H21        -0.3010    0.7240   -0.7620 h1        1 PG6      0.042700
     23 H22         1.3960    0.6040   -1.4450 h1        1 PG6      0.042700
     24 H31         1.2710   -0.3990    1.3760 h1        1 PG6      0.043200
     25 H32         0.6850    1.3340    1.2510 h1        1 PG6      0.043200
     26 H41         3.4900    0.1150    2.2190 h1        1 PG6      0.044200
     27 H42         2.7390    1.7690    2.4810 h1        1 PG6      0.044200
     28 H51         5.4980    1.2550    1.9410 h1        1 PG6      0.043200
     29 H52         4.8300    1.7670    0.3110 h1        1 PG6      0.043200
     30 H61         6.6620    3.3800    1.7730 h1        1 PG6      0.043700
     31 H62         5.6800    4.0460    0.3740 h1        1 PG6      0.043700
     32 H71         4.5720    5.3650    2.6530 h1        1 PG6      0.043700
     33 H72         5.7910    6.0860    1.4870 h1        1 PG6      0.043700
     34 H81         5.5330    6.3060    4.6750 h1        1 PG6      0.043200
     35 H82         6.4640    7.3290    3.4680 h1        1 PG6      0.043200
     36 H91         7.3880    6.5480    6.0580 h1        1 PG6      0.044200
     37 H92         8.2190    5.3630    4.9300 h1        1 PG6      0.044200
     38 H101        9.6560    7.3650    6.3490 h1        1 PG6      0.043200
     39 H102       10.3870    6.4680    4.9270 h1        1 PG6      0.043200
     40 H111       10.0120    9.1650    3.9810 h1        1 PG6      0.042700
     41 H112       11.5990    8.4020    4.4920 h1        1 PG6      0.042700
     42 H121       12.1920   10.6780    5.2990 h1        1 PG6      0.032700
     43 H122       10.5120   11.3050    4.9340 h1        1 PG6      0.032700
     44 H123       11.1310   11.3020    6.6640 h1        1 PG6      0.032700
@<TRIPOS>BOND
     1    1    2 1   
     2    1   19 1   
     3    1   20 1   
     4    1   21 1   
     5    2    3 1   
     6    3    4 1   
     7    3   22 1   
     8    3   23 1   
     9    4    5 1   
    10    4   24 1   
    11    4   25 1   
    12    5    6 1   
    13    6    7 1   
    14    6   26 1   
    15    6   27 1   
    16    7    8 1   
    17    7   28 1   
    18    7   29 1   
    19    8    9 1   
    20    9   10 1   
    21    9   30 1   
    22    9   31 1   
    23   10   11 1   
    24   10   32 1   
    25   10   33 1   
    26   11   12 1   
    27   12   13 1   
    28   12   34 1   
    29   12   35 1   
    30   13   14 1   
    31   13   36 1   
    32   13   37 1   
    33   14   15 1   
    34   15   16 1   
    35   15   38 1   
    36   15   39 1   
    37   16   17 1   
    38   16   40 1   
    39   16   41 1   
    40   17   18 1   
    41   18   42 1   
    42   18   43 1   
    43   18   44 1   
@<TRIPOS>SUBSTRUCTURE
     1 PG6         1 TEMP              0 ****  ****    0 ROOT
