@<TRIPOS>MOLECULE
PG8
   75    74     1     0     0
SMALL
bcc


@<TRIPOS>ATOM
      1 O1          1.1660    1.1950    0.2800 o         1 PG8     -0.820500
      2 O2          3.1590    2.1820   -1.1330 o         1 PG8     -0.820500
      3 P1          2.4370    1.0900   -0.4680 p5        1 PG8      1.423800
      4 O3          3.4990    0.3460    0.5710 os        1 PG8     -0.584200
      5 C1          3.0060   -0.1780    1.7620 c3        1 PG8      0.186400
      6 C2          3.3880    0.7200    2.9540 c3        1 PG8      0.077100
      7 C3          2.1550    1.4070    3.5470 c3        1 PG8      0.076400
      8 O4          2.5450    2.3640    4.5200 oh        1 PG8     -0.627800
      9 O5          4.0050   -0.1170    3.9280 oh        1 PG8     -0.614800
     10 O6          2.2570   -0.1360   -1.5610 os        1 PG8     -0.562200
     11 C4          1.4470   -1.1740   -1.1070 c3        1 PG8      0.185400
     12 C5          1.4930   -2.3080   -2.1400 c3        1 PG8      0.138100
     13 C6          2.9120   -2.7800   -2.4440 c3        1 PG8      0.129400
     14 O7          3.6020   -2.9450   -1.1990 os        1 PG8     -0.439900
     15 C7          4.9480   -2.6870   -1.1970 c         1 PG8      0.650100
     16 O8          5.5500   -2.7200   -2.2730 o         1 PG8     -0.562000
     17 C8          5.4670   -2.4000    0.1750 c3        1 PG8     -0.146400
     18 C9          6.9640   -2.5970    0.2570 c3        1 PG8     -0.071400
     19 C10         7.4850   -2.1750    1.6140 c3        1 PG8     -0.081400
     20 C11         8.9830   -2.3720    1.7080 c3        1 PG8     -0.077400
     21 C12         9.5070   -1.9490    3.0630 c3        1 PG8     -0.080400
     22 C13        11.0050   -2.1440    3.1610 c3        1 PG8     -0.080400
     23 C14        11.5320   -1.7250    4.5100 c3        1 PG8     -0.091100
     24 O9          0.7220   -3.3750   -1.5460 os        1 PG8     -0.428900
     25 C15         0.1790   -4.3110   -2.3690 c         1 PG8      0.634100
     26 O10         0.3450   -4.2280   -3.5890 o         1 PG8     -0.562000
     27 C16        -0.5670   -5.3670   -1.6080 c3        1 PG8     -0.130400
     28 C17        -1.7530   -5.8740   -2.3990 c3        1 PG8     -0.078400
     29 C18        -2.4170   -7.0350   -1.6900 c3        1 PG8     -0.078400
     30 C19        -3.6140   -7.5370   -2.4700 c3        1 PG8     -0.079400
     31 C20        -4.2770   -8.7020   -1.7680 c3        1 PG8     -0.079400
     32 C21        -5.4740   -9.2050   -2.5460 c3        1 PG8     -0.080400
     33 C22        -6.1380  -10.3660   -1.8510 c3        1 PG8     -0.092100
     34 H1          1.8870   -0.2890    1.7140 h1        1 PG8      0.046700
     35 H2          3.4810   -1.1900    1.9120 h1        1 PG8      0.046700
     36 H3          4.1360    1.4960    2.6250 h1        1 PG8      0.048700
     37 H4          1.5390    1.8790    2.7360 h1        1 PG8      0.076700
     38 H5          1.5300    0.6670    4.1140 h1        1 PG8      0.076700
     39 H6          2.9610    3.0920    4.0440 ho        1 PG8      0.397000
     40 H7          4.0590    0.4090    4.7360 ho        1 PG8      0.396000
     41 H8          0.3940   -0.8030   -0.9780 h1        1 PG8      0.041700
     42 H9          1.8310   -1.5460   -0.1170 h1        1 PG8      0.041700
     43 H10         1.0140   -1.9900   -3.1060 h1        1 PG8      0.078700
     44 H11         2.9020   -3.7720   -2.9650 h1        1 PG8      0.067700
     45 H12         3.4270   -2.0060   -3.0730 h1        1 PG8      0.067700
     46 H13         5.1870   -1.3290    0.4060 hc        1 PG8      0.101700
     47 H14         4.9360   -3.0490    0.9200 hc        1 PG8      0.101700
     48 H15         7.2150   -3.6740    0.0700 hc        1 PG8      0.047200
     49 H16         7.4620   -1.9980   -0.5500 hc        1 PG8      0.047200
     50 H17         6.9750   -2.7700    2.4160 hc        1 PG8      0.048700
     51 H18         7.2330   -1.0960    1.7930 hc        1 PG8      0.048700
     52 H19         9.4910   -1.7750    0.9050 hc        1 PG8      0.036200
     53 H20         9.2340   -3.4500    1.5260 hc        1 PG8      0.036200
     54 H21         8.9980   -2.5450    3.8660 hc        1 PG8      0.041700
     55 H22         9.2560   -0.8710    3.2430 hc        1 PG8      0.041700
     56 H23        11.5120   -1.5480    2.3570 hc        1 PG8      0.035700
     57 H24        11.2550   -3.2230    2.9780 hc        1 PG8      0.035700
     58 H25        11.0550   -2.3250    5.3220 hc        1 PG8      0.028700
     59 H26        12.6370   -1.8760    4.5610 hc        1 PG8      0.028700
     60 H27        11.3140   -0.6460    4.6990 hc        1 PG8      0.028700
     61 H28         0.1550   -6.2030   -1.4020 hc        1 PG8      0.075700
     62 H29        -0.8980   -4.9520   -0.6200 hc        1 PG8      0.075700
     63 H30        -1.4120   -6.1900   -3.4210 hc        1 PG8      0.056200
     64 H31        -2.4920   -5.0430   -2.5400 hc        1 PG8      0.056200
     65 H32        -2.7420   -6.7150   -0.6650 hc        1 PG8      0.039200
     66 H33        -1.6780   -7.8690   -1.5580 hc        1 PG8      0.039200
     67 H34        -4.3540   -6.7040   -2.5980 hc        1 PG8      0.041700
     68 H35        -3.2890   -7.8510   -3.4960 hc        1 PG8      0.041700
     69 H36        -4.6020   -8.3870   -0.7410 hc        1 PG8      0.038700
     70 H37        -3.5370   -9.5350   -1.6390 hc        1 PG8      0.038700
     71 H38        -6.2130   -8.3700   -2.6750 hc        1 PG8      0.038200
     72 H39        -5.1470   -9.5170   -3.5730 hc        1 PG8      0.038200
     73 H40        -7.0170  -10.7210   -2.4410 hc        1 PG8      0.030367
     74 H41        -5.4240  -11.2170   -1.7360 hc        1 PG8      0.030367
     75 H42        -6.4920  -10.0670   -0.8350 hc        1 PG8      0.030367
@<TRIPOS>BOND
     1    1    3 1   
     2    2    3 1   
     3    3    4 1   
     4    3   10 1   
     5    4    5 1   
     6    5    6 1   
     7    5   34 1   
     8    5   35 1   
     9    6    7 1   
    10    6    9 1   
    11    6   36 1   
    12    7    8 1   
    13    7   37 1   
    14    7   38 1   
    15    8   39 1   
    16    9   40 1   
    17   10   11 1   
    18   11   12 1   
    19   11   41 1   
    20   11   42 1   
    21   12   13 1   
    22   12   24 1   
    23   12   43 1   
    24   13   14 1   
    25   13   44 1   
    26   13   45 1   
    27   14   15 1   
    28   15   16 2   
    29   15   17 1   
    30   17   18 1   
    31   17   46 1   
    32   17   47 1   
    33   18   19 1   
    34   18   48 1   
    35   18   49 1   
    36   19   20 1   
    37   19   50 1   
    38   19   51 1   
    39   20   21 1   
    40   20   52 1   
    41   20   53 1   
    42   21   22 1   
    43   21   54 1   
    44   21   55 1   
    45   22   23 1   
    46   22   56 1   
    47   22   57 1   
    48   23   58 1   
    49   23   59 1   
    50   23   60 1   
    51   24   25 1   
    52   25   26 2   
    53   25   27 1   
    54   27   28 1   
    55   27   61 1   
    56   27   62 1   
    57   28   29 1   
    58   28   63 1   
    59   28   64 1   
    60   29   30 1   
    61   29   65 1   
    62   29   66 1   
    63   30   31 1   
    64   30   67 1   
    65   30   68 1   
    66   31   32 1   
    67   31   69 1   
    68   31   70 1   
    69   32   33 1   
    70   32   71 1   
    71   32   72 1   
    72   33   73 1   
    73   33   74 1   
    74   33   75 1   
@<TRIPOS>SUBSTRUCTURE
     1 PG8         1 TEMP              0 ****  ****    0 ROOT
