@<TRIPOS>MOLECULE
molecule
   75    74     1     0     0
SMALL
bcc


@<TRIPOS>ATOM
      1 O1           0.0000     0.0000     0.0000 o          1 PG8      -0.822500
      2 O2           2.0590     1.2640    -0.7250 o          1 PG8      -0.822500
      3 P1           1.5450     0.0000     0.0000 p5         1 PG8       1.279800
      4 O3           2.0820     0.0000     1.5170 os         1 PG8      -0.542200
      5 C1           1.4800     1.1200     2.1690 c3         1 PG8       0.146400
      6 C2           1.9520     1.1780     3.6240 c3         1 PG8       0.149100
      7 C3           1.4070     2.4450     4.2860 c3         1 PG8       0.123400
      8 O4           1.9410     2.5590     5.6060 oh         1 PG8      -0.616800
      9 O5           1.4720     0.0300     4.3260 oh         1 PG8      -0.594800
     10 O6           2.0820    -1.3140    -0.7600 os         1 PG8      -0.522200
     11 C4           1.4800    -1.3170    -2.0560 c3         1 PG8       0.140400
     12 C5           1.9500    -2.5470    -2.8340 c3         1 PG8       0.154100
     13 C6           3.4790    -2.5720    -2.8720 c3         1 PG8       0.167400
     14 O7           3.9980    -2.5100    -1.5180 os         1 PG8      -0.369900
     15 C7           5.3230    -2.5190    -1.3060 c          1 PG8       0.639100
     16 O8           6.0850    -2.5790    -2.2420 o          1 PG8      -0.592000
     17 C8           5.8630    -2.4550     0.1000 c3         1 PG8      -0.124400
     18 C9           7.3920    -2.4800     0.0620 c3         1 PG8      -0.072400
     19 C10          7.9390    -2.4150     1.4900 c3         1 PG8      -0.084400
     20 C11          9.4680    -2.4400     1.4510 c3         1 PG8      -0.080400
     21 C12         10.0150    -2.3760     2.8780 c3         1 PG8      -0.082400
     22 C13         11.5450    -2.4000     2.8400 c3         1 PG8      -0.084400
     23 C14         12.0910    -2.3350     4.2680 c3         1 PG8      -0.092100
     24 O9           1.4630    -3.7490    -2.1820 os         1 PG8      -0.414900
     25 C15          0.2730    -4.2640    -2.5260 c          1 PG8       0.640100
     26 O10         -0.3930    -3.7290    -3.3800 o          1 PG8      -0.567000
     27 C16         -0.2330    -5.5120    -1.8480 c3         1 PG8      -0.124400
     28 C17         -1.6020    -5.8840    -2.4220 c3         1 PG8      -0.072400
     29 C18         -2.1160    -7.1510    -1.7330 c3         1 PG8      -0.084400
     30 C19         -3.4840    -7.5240    -2.3070 c3         1 PG8      -0.080400
     31 C20         -3.9980    -8.7900    -1.6180 c3         1 PG8      -0.082400
     32 C21         -5.3670    -9.1630    -2.1910 c3         1 PG8      -0.084400
     33 C22         -5.8810   -10.4290    -1.5030 c3         1 PG8      -0.092100
     34 H1           0.4020     1.0160     2.1430 h1         1 PG8       0.063700
     35 H2           1.7680     2.0320     1.6600 h1         1 PG8       0.063700
     36 H3           3.0340     1.1920     3.6520 h1         1 PG8       0.040700
     37 H4           0.3260     2.3890     4.3370 h1         1 PG8       0.030700
     38 H5           1.6970     3.3100     3.7030 h1         1 PG8       0.030700
     39 H6           1.7480     3.4150     5.9510 ho         1 PG8       0.389000
     40 H7           2.2030    -0.4760     4.6380 ho         1 PG8       0.397000
     41 H8           1.7680    -0.4200    -2.5900 h1         1 PG8       0.069700
     42 H9           0.4020    -1.3450    -1.9530 h1         1 PG8       0.069700
     43 H10          1.5640    -2.5040    -3.8460 h1         1 PG8       0.068700
     44 H11          3.8400    -1.7200    -3.4360 h1         1 PG8       0.047200
     45 H12          3.8140    -3.4860    -3.3460 h1         1 PG8       0.047200
     46 H13          5.5010    -3.3070     0.6640 hc         1 PG8       0.078200
     47 H14          5.5280    -1.5400     0.5740 hc         1 PG8       0.078200
     48 H15          7.7260    -3.3960    -0.4110 hc         1 PG8       0.053200
     49 H16          7.7530    -1.6290    -0.5030 hc         1 PG8       0.053200
     50 H17          7.6050    -1.4990     1.9630 hc         1 PG8       0.042200
     51 H18          7.5780    -3.2660     2.0540 hc         1 PG8       0.042200
     52 H19          9.8290    -1.5890     0.8870 hc         1 PG8       0.040700
     53 H20          9.8020    -3.3550     0.9770 hc         1 PG8       0.040700
     54 H21          9.6540    -3.2270     3.4420 hc         1 PG8       0.041200
     55 H22          9.6800    -1.4610     3.3520 hc         1 PG8       0.041200
     56 H23         11.9050    -1.5480     2.2770 hc         1 PG8       0.038700
     57 H24         11.8800    -3.3140     2.3660 hc         1 PG8       0.038700
     58 H25         11.7770    -1.4090     4.7330 hc         1 PG8       0.030033
     59 H26         13.1740    -2.3770     4.2420 hc         1 PG8       0.030033
     60 H27         11.7110    -3.1740     4.8380 hc         1 PG8       0.030033
     61 H28         -0.3230    -5.3340    -0.7840 hc         1 PG8       0.069700
     62 H29          0.4640    -6.3240    -2.0210 hc         1 PG8       0.069700
     63 H30         -2.2980    -5.0720    -2.2500 hc         1 PG8       0.058200
     64 H31         -1.5120    -6.0630    -3.4860 hc         1 PG8       0.058200
     65 H32         -1.4190    -7.9630    -1.9050 hc         1 PG8       0.039200
     66 H33         -2.2070    -6.9720    -0.6690 hc         1 PG8       0.039200
     67 H34         -4.1810    -6.7120    -2.1360 hc         1 PG8       0.043200
     68 H35         -3.3930    -7.7040    -3.3710 hc         1 PG8       0.043200
     69 H36         -4.0890    -8.6100    -0.5540 hc         1 PG8       0.039700
     70 H37         -3.3010    -9.6020    -1.7900 hc         1 PG8       0.039700
     71 H38         -6.0630    -8.3510    -2.0200 hc         1 PG8       0.039700
     72 H39         -5.2760    -9.3420    -3.2560 hc         1 PG8       0.039700
     73 H40         -5.1790   -11.2380    -1.6650 hc         1 PG8       0.030033
     74 H41         -5.9830   -10.2460    -0.4400 hc         1 PG8       0.030033
     75 H42         -6.8450   -10.6990    -1.9170 hc         1 PG8       0.030033
@<TRIPOS>BOND
     1     1     3 1
     2     2     3 1
     3     3     4 1
     4     3    10 1
     5     4     5 1
     6     5     6 1
     7     5    34 1
     8     5    35 1
     9     6     7 1
    10     6     9 1
    11     6    36 1
    12     7     8 1
    13     7    37 1
    14     7    38 1
    15     8    39 1
    16     9    40 1
    17    10    11 1
    18    11    12 1
    19    11    41 1
    20    11    42 1
    21    12    13 1
    22    12    24 1
    23    12    43 1
    24    13    14 1
    25    13    44 1
    26    13    45 1
    27    14    15 1
    28    15    16 2
    29    15    17 1
    30    17    18 1
    31    17    46 1
    32    17    47 1
    33    18    19 1
    34    18    48 1
    35    18    49 1
    36    19    20 1
    37    19    50 1
    38    19    51 1
    39    20    21 1
    40    20    52 1
    41    20    53 1
    42    21    22 1
    43    21    54 1
    44    21    55 1
    45    22    23 1
    46    22    56 1
    47    22    57 1
    48    23    58 1
    49    23    59 1
    50    23    60 1
    51    24    25 1
    52    25    26 2
    53    25    27 1
    54    27    28 1
    55    27    61 1
    56    27    62 1
    57    28    29 1
    58    28    63 1
    59    28    64 1
    60    29    30 1
    61    29    65 1
    62    29    66 1
    63    30    31 1
    64    30    67 1
    65    30    68 1
    66    31    32 1
    67    31    69 1
    68    31    70 1
    69    32    33 1
    70    32    71 1
    71    32    72 1
    72    33    73 1
    73    33    74 1
    74    33    75 1
@<TRIPOS>SUBSTRUCTURE
     1 PG8         1 TEMP              0 ****  ****    0 ROOT
