@<TRIPOS>MOLECULE
PGA
   11    10     1     0     0
SMALL
bcc


@<TRIPOS>ATOM
      1 P          -0.1820   -0.1290   -0.1090 p5        1 PGA      1.321900
      2 O1P         1.5110   -0.3240   -0.2850 os        1 PGA     -0.569200
      3 O2P        -0.3700    0.6190    1.1930 o         1 PGA     -0.958167
      4 O3P        -0.5460    0.6710   -1.3430 o         1 PGA     -0.958167
      5 O4P        -0.7500   -1.5320   -0.0910 o         1 PGA     -0.958167
      6 C2          2.0680   -1.0430    0.7600 c3        1 PGA      0.116400
      7 C1          3.5890   -1.2510    0.6600 c         1 PGA      0.894600
      8 O1          4.3950   -0.4350    1.2220 o         1 PGA     -0.928300
      9 O2          4.0650   -2.3070    0.1200 o         1 PGA     -0.928300
     10 H21         1.5750   -2.0570    0.8060 h1        1 PGA     -0.016300
     11 H22         1.8480   -0.5060    1.7280 h1        1 PGA     -0.016300
@<TRIPOS>BOND
     1    1    2 1   
     2    1    3 1   
     3    1    4 1   
     4    1    5 1   
     5    2    6 1   
     6    6    7 1   
     7    6   10 1   
     8    6   11 1   
     9    7    8 1   
    10    7    9 1   
@<TRIPOS>SUBSTRUCTURE
     1 PGA         1 TEMP              0 ****  ****    0 ROOT
