@<TRIPOS>MOLECULE
molecule
   11    10     1     0     0
SMALL
bcc


@<TRIPOS>ATOM
      1 P            0.0000     0.0000     0.0000 p5         1 PGA       1.206900
      2 O1P          1.6090     0.0000     0.0000 os         1 PGA      -0.543200
      3 O2P         -0.4910     0.0000     1.3960 o          1 PGA      -0.947167
      4 O3P         -0.5380     1.3130    -0.7570 o          1 PGA      -0.947167
      5 O4P         -0.5370    -1.3150    -0.7570 o          1 PGA      -0.947167
      6 C2           2.0240    -1.1840     0.6830 c3         1 PGA       0.061400
      7 C1           3.5290    -1.2440     0.7170 c          1 PGA       0.892600
      8 O1           4.1800    -0.3640     0.2080 o          1 PGA      -0.912800
      9 O2           4.1460    -2.2770     1.3120 o          1 PGA      -0.912800
     10 H21          1.6400    -1.1700     1.6960 h1         1 PGA       0.025200
     11 H22          1.6400    -2.0540     0.1630 h1         1 PGA       0.025200
@<TRIPOS>BOND
     1     1     2 1
     2     1     3 1
     3     1     4 1
     4     1     5 1
     5     2     6 1
     6     6     7 1
     7     6    10 1
     8     6    11 1
     9     7     8 1
    10     7     9 1
@<TRIPOS>SUBSTRUCTURE
     1 PGA         1 TEMP              0 ****  ****    0 ROOT
