@<TRIPOS>MOLECULE
molecule
   24    23     1     0     0
SMALL
bcc


@<TRIPOS>ATOM
      1 C1           0.0000     0.0000     0.0000 c3         1 PGE       0.142400
      2 O1           1.4280     0.0000     0.0000 oh         1 PGE      -0.598800
      3 C2          -0.5100     0.0000     1.4420 c3         1 PGE       0.128400
      4 O2          -0.0350     1.1680     2.1150 os         1 PGE      -0.381600
      5 C3          -0.5410     1.1090     3.4500 c3         1 PGE       0.126400
      6 C4          -0.0660     2.3370     4.2300 c3         1 PGE       0.126400
      7 O4          -1.9750     5.9530     3.6950 oh         1 PGE      -0.598800
      8 C6          -0.5470     5.9340     3.7270 c3         1 PGE       0.142400
      9 C5          -0.0690     4.6270     4.3600 c3         1 PGE       0.128400
     10 O3          -0.5430     3.5210     3.5890 os         1 PGE      -0.381600
     11 H1          -0.3610    -0.8840    -0.5110 h1         1 PGE       0.027700
     12 H12         -0.3610     0.8840    -0.5110 h1         1 PGE       0.027700
     13 HO1          1.7420    -0.0920    -0.8840 ho         1 PGE       0.398000
     14 H2          -0.1490    -0.8840     1.9530 h1         1 PGE       0.032200
     15 H22         -1.5940    -0.0010     1.4420 h1         1 PGE       0.032200
     16 H3          -1.6240     1.0940     3.4250 h1         1 PGE       0.032700
     17 H32         -0.1780     0.2110     3.9350 h1         1 PGE       0.032700
     18 H4          -0.4510     2.2930     5.2410 h1         1 PGE       0.032700
     19 H42          1.0170     2.3510     4.2560 h1         1 PGE       0.032700
     20 HO4         -2.2710     6.7940     3.3890 ho         1 PGE       0.398000
     21 H6          -0.1630     6.0070     2.7160 h1         1 PGE       0.027700
     22 H62         -0.1870     6.7710     4.3110 h1         1 PGE       0.027700
     23 H5          -0.4530     4.5540     5.3710 h1         1 PGE       0.032200
     24 H52          1.0140     4.6130     4.3840 h1         1 PGE       0.032200
@<TRIPOS>BOND
     1     1     2 1
     2     1     3 1
     3     1    11 1
     4     1    12 1
     5     2    13 1
     6     3     4 1
     7     3    14 1
     8     3    15 1
     9     4     5 1
    10     5     6 1
    11     5    16 1
    12     5    17 1
    13     6    10 1
    14     6    18 1
    15     6    19 1
    16     7     8 1
    17     7    20 1
    18     8     9 1
    19     8    21 1
    20     8    22 1
    21     9    10 1
    22     9    23 1
    23     9    24 1
@<TRIPOS>SUBSTRUCTURE
     1 PGE         1 TEMP              0 ****  ****    0 ROOT
