@<TRIPOS>MOLECULE
PGE
   24    23     1     0     0
SMALL
bcc


@<TRIPOS>ATOM
      1 C1          0.3140   -0.1900    0.0170 c3        1 PGE      0.131400
      2 O1          1.4450   -0.9110    0.4570 oh        1 PGE     -0.599800
      3 C2         -0.6390    0.1180    1.1670 c3        1 PGE      0.087400
      4 O2          0.0550    1.0210    2.0250 os        1 PGE     -0.437600
      5 C3         -0.7030    1.3590    3.1850 c3        1 PGE      0.128400
      6 C4          0.0710    2.4590    3.9040 c3        1 PGE      0.128400
      7 O4         -2.0080    5.9680    4.6640 oh        1 PGE     -0.599800
      8 C6         -0.8340    6.0160    3.8800 c3        1 PGE      0.131400
      9 C5          0.0700    4.8160    4.1470 c3        1 PGE      0.087400
     10 O3         -0.6380    3.6740    3.6700 os        1 PGE     -0.437600
     11 H1          0.6340    0.7640   -0.4820 h1        1 PGE      0.053700
     12 H12        -0.1920   -0.8620   -0.7260 h1        1 PGE      0.053700
     13 HO1         1.8680   -0.3800    1.1430 ho        1 PGE      0.412000
     14 H2         -0.8970   -0.8160    1.7310 h1        1 PGE      0.039700
     15 H22        -1.5760    0.6010    0.7850 h1        1 PGE      0.039700
     16 H3         -1.7240    1.7180    2.8900 h1        1 PGE      0.044700
     17 H32        -0.7950    0.4530    3.8400 h1        1 PGE      0.044700
     18 H4          0.1020    2.2590    5.0080 h1        1 PGE      0.044700
     19 H42         1.1170    2.5370    3.5050 h1        1 PGE      0.044700
     20 HO4        -2.4470    5.1320    4.4600 ho        1 PGE      0.412000
     21 H6         -0.3130    6.9600    4.1910 h1        1 PGE      0.053700
     22 H62        -1.0980    6.0620    2.7900 h1        1 PGE      0.053700
     23 H5          1.0400    4.9220    3.5940 h1        1 PGE      0.039700
     24 H52         0.2700    4.7050    5.2450 h1        1 PGE      0.039700
@<TRIPOS>BOND
     1    1    2 1   
     2    1    3 1   
     3    1   11 1   
     4    1   12 1   
     5    2   13 1   
     6    3    4 1   
     7    3   14 1   
     8    3   15 1   
     9    4    5 1   
    10    5    6 1   
    11    5   16 1   
    12    5   17 1   
    13    6   10 1   
    14    6   18 1   
    15    6   19 1   
    16    7    8 1   
    17    7   20 1   
    18    8    9 1   
    19    8   21 1   
    20    8   22 1   
    21    9   10 1   
    22    9   23 1   
    23    9   24 1   
@<TRIPOS>SUBSTRUCTURE
     1 PGE         1 TEMP              0 ****  ****    0 ROOT
