@<TRIPOS>MOLECULE
PGF
   33    32     1     0     0
SMALL
bcc


@<TRIPOS>ATOM
      1 C7         -0.0810    1.9620    0.5470 c3        1 PGF     -0.097100
      2 C8          0.6830    0.7030    0.2110 c3        1 PGF      0.131400
      3 O5          1.7670    0.6180    1.1350 os        1 PGF     -0.428600
      4 C9          2.5810   -0.5300    0.9090 c3        1 PGF      0.126400
      5 C10         3.5900   -0.5770    2.0520 c3        1 PGF      0.127400
      6 O6          3.2540   -1.7170    2.8400 os        1 PGF     -0.429600
      7 C11         4.0210   -1.7880    4.0400 c3        1 PGF      0.127400
      8 C12         3.6890   -3.1280    4.6880 c3        1 PGF      0.127400
      9 O7          4.8280   -3.9650    4.4970 os        1 PGF     -0.429600
     10 C13         4.5890   -5.3060    4.9180 c3        1 PGF      0.127400
     11 C14         5.9270   -6.0320    4.8280 c3        1 PGF      0.123400
     12 O8          6.3280   -6.3110    6.1690 os        1 PGF     -0.425600
     13 C15         7.6310   -6.8610    6.2440 c3        1 PGF      0.117700
     14 H71        -0.9440    2.0680   -0.1520 hc        1 PGF      0.045033
     15 H72         0.5800    2.8560    0.4510 hc        1 PGF      0.045033
     16 H73        -0.4620    1.9180    1.5950 hc        1 PGF      0.045033
     17 H81         1.0870    0.7420   -0.8360 h1        1 PGF      0.024700
     18 H82         0.0310   -0.2050    0.3150 h1        1 PGF      0.024700
     19 H91         3.1070   -0.4210   -0.0760 h1        1 PGF      0.041700
     20 H92         1.9500   -1.4590    0.8960 h1        1 PGF      0.041700
     21 H101        3.5310    0.3560    2.6730 h1        1 PGF      0.043200
     22 H102        4.6310   -0.7000    1.6530 h1        1 PGF      0.043200
     23 H111        5.1170   -1.7200    3.8050 h1        1 PGF      0.043700
     24 H112        3.7270   -0.9430    4.7160 h1        1 PGF      0.043700
     25 H121        3.5090   -2.9970    5.7880 h1        1 PGF      0.043700
     26 H122        2.7840   -3.5880    4.2100 h1        1 PGF      0.043700
     27 H131        4.1990   -5.3200    5.9710 h1        1 PGF      0.043200
     28 H132        3.8370   -5.7790    4.2320 h1        1 PGF      0.043200
     29 H141        6.6950   -5.3920    4.3180 h1        1 PGF      0.042700
     30 H142        5.8130   -6.9990    4.2700 h1        1 PGF      0.042700
     31 H151        7.6840   -7.8270    5.6830 h1        1 PGF      0.032700
     32 H152        8.3870   -6.1450    5.8370 h1        1 PGF      0.032700
     33 H153        7.8010   -7.0320    7.3360 h1        1 PGF      0.032700
@<TRIPOS>BOND
     1    1    2 1   
     2    1   14 1   
     3    1   15 1   
     4    1   16 1   
     5    2    3 1   
     6    2   17 1   
     7    2   18 1   
     8    3    4 1   
     9    4    5 1   
    10    4   19 1   
    11    4   20 1   
    12    5    6 1   
    13    5   21 1   
    14    5   22 1   
    15    6    7 1   
    16    7    8 1   
    17    7   23 1   
    18    7   24 1   
    19    8    9 1   
    20    8   25 1   
    21    8   26 1   
    22    9   10 1   
    23   10   11 1   
    24   10   27 1   
    25   10   28 1   
    26   11   12 1   
    27   11   29 1   
    28   11   30 1   
    29   12   13 1   
    30   13   31 1   
    31   13   32 1   
    32   13   33 1   
@<TRIPOS>SUBSTRUCTURE
     1 PGF         1 TEMP              0 ****  ****    0 ROOT
