@<TRIPOS>MOLECULE
molecule
   33    32     1     0     0
SMALL
bcc


@<TRIPOS>ATOM
      1 C7           0.0000     0.0000     0.0000 c3         1 PGF      -0.092100
      2 C8           1.5300     0.0000     0.0000 c3         1 PGF       0.122400
      3 O5           2.0060     0.0000     1.3480 os         1 PGF      -0.400600
      4 C9           3.4330     0.0010     1.2820 c3         1 PGF       0.127400
      5 C10          4.0090     0.0010     2.6990 c3         1 PGF       0.126400
      6 O6           3.6610    -1.2200     3.3560 os         1 PGF      -0.387600
      7 C11          4.2240    -1.1590     4.6680 c3         1 PGF       0.126400
      8 C12          3.8870    -2.4440     5.4270 c3         1 PGF       0.126400
      9 O7           4.5240    -3.5550     4.7930 os         1 PGF      -0.387600
     10 C13          4.1720    -4.7170     5.5450 c3         1 PGF       0.125400
     11 C14          4.8270    -5.9490     4.9150 c3         1 PGF       0.126400
     12 O8           6.2470    -5.8430     5.0250 os         1 PGF      -0.399600
     13 C15          6.7980    -7.0160     4.4230 c3         1 PGF       0.115700
     14 H71         -0.3610    -0.9040     0.4760 hc         1 PGF       0.043033
     15 H72         -0.3610     0.8640     0.5440 hc         1 PGF       0.043033
     16 H73         -0.3610     0.0390    -1.0210 hc         1 PGF       0.043033
     17 H81          1.8910    -0.8850    -0.5110 h1         1 PGF       0.023200
     18 H82          1.8910     0.8850    -0.5110 h1         1 PGF       0.023200
     19 H91          3.7710    -0.8830     0.7550 h1         1 PGF       0.034200
     20 H92          3.7690     0.8860     0.7560 h1         1 PGF       0.034200
     21 H101         3.6030     0.8380     3.2540 h1         1 PGF       0.033200
     22 H102         5.0880     0.0890     2.6510 h1         1 PGF       0.033200
     23 H111         5.2990    -1.0550     4.5950 h1         1 PGF       0.034200
     24 H112         3.8130    -0.3080     5.1980 h1         1 PGF       0.034200
     25 H121         4.2370    -2.3610     6.4490 h1         1 PGF       0.034200
     26 H122         2.8140    -2.5930     5.4250 h1         1 PGF       0.034200
     27 H131         3.0950    -4.8380     5.5400 h1         1 PGF       0.032700
     28 H132         4.5180    -4.6060     6.5660 h1         1 PGF       0.032700
     29 H141         4.4910    -6.8400     5.4320 h1         1 PGF       0.034700
     30 H142         4.5490    -6.0110     3.8700 h1         1 PGF       0.034700
     31 H151         6.4360    -7.8930     4.9450 h1         1 PGF       0.029700
     32 H152         7.8790    -6.9800     4.4830 h1         1 PGF       0.029700
     33 H153         6.4950    -7.0640     3.3840 h1         1 PGF       0.029700
@<TRIPOS>BOND
     1     1     2 1
     2     1    14 1
     3     1    15 1
     4     1    16 1
     5     2     3 1
     6     2    17 1
     7     2    18 1
     8     3     4 1
     9     4     5 1
    10     4    19 1
    11     4    20 1
    12     5     6 1
    13     5    21 1
    14     5    22 1
    15     6     7 1
    16     7     8 1
    17     7    23 1
    18     7    24 1
    19     8     9 1
    20     8    25 1
    21     8    26 1
    22     9    10 1
    23    10    11 1
    24    10    27 1
    25    10    28 1
    26    11    12 1
    27    11    29 1
    28    11    30 1
    29    12    13 1
    30    13    31 1
    31    13    32 1
    32    13    33 1
@<TRIPOS>SUBSTRUCTURE
     1 PGF         1 TEMP              0 ****  ****    0 ROOT
