@<TRIPOS>MOLECULE
PGG
   36    36     1     0     0
SMALL
bcc


@<TRIPOS>ATOM
      1 C1           0.0000     0.0000     0.0000 ca         1 PGG       0.356100
      2 C2           1.3940     0.0000     0.0000 ca         1 PGG      -0.185000
      3 C3           2.0790     0.0000     1.1780 ca         1 PGG       0.037000
      4 C4           1.3750     0.0010     2.3970 ca         1 PGG      -0.615200
      5 C5          -0.0330     0.0010     2.3890 ca         1 PGG       0.037000
      6 C6          -0.7030     0.0060     1.2030 ca         1 PGG      -0.185000
      7 P1          -0.9050    -1.5410    -1.5800 p5         1 PGG       0.607600
      8 O1          -0.6740     0.0010    -1.1760 os         1 PGG      -0.368500
      9 O2           0.5180    -2.2740    -1.7380 o          1 PGG      -0.635000
     10 O3          -1.6930    -2.2140    -0.5230 o          1 PGG      -0.635000
     11 C8          -1.8120    -1.6250    -3.1580 c3         1 PGG      -0.033600
     12 C9          -2.0310    -3.0900    -3.5430 c3         1 PGG       0.025600
     13 C10         -2.7920    -3.1600    -4.8690 c3         1 PGG      -0.105400
     14 C11         -3.0080    -4.6020    -5.2470 c          1 PGG       0.550100
     15 N2          -3.6610    -4.9100    -6.3850 ns         1 PGG      -0.179900
     16 O6          -2.5960    -5.4860    -4.5270 o          1 PGG      -0.681100
     17 C12         -3.8720    -6.3120    -6.7530 c3         1 PGG      -0.065000
     18 C13         -4.6210    -6.3820    -8.0590 c          1 PGG       0.975600
     19 O7          -4.9280    -7.5740    -8.5940 o          1 PGG      -0.905300
     20 O8          -4.9450    -5.3650    -8.6250 o          1 PGG      -0.905300
     21 N1           2.0420     0.0010     3.5600 no         1 PGG       1.132200
     22 O4           1.4300     0.0010     4.6140 o          1 PGG      -0.534000
     23 O5           3.2590     0.0000     3.5640 o          1 PGG      -0.534000
     24 H21          1.9340    -0.0020    -0.9390 ha         1 PGG       0.133000
     25 H31          3.1620    -0.0000     1.1760 ha         1 PGG       0.115000
     26 H51         -0.5810     0.0040     3.3230 ha         1 PGG       0.115000
     27 H61         -1.7860     0.0060     1.1950 ha         1 PGG       0.133000
     28 H81         -1.2370    -1.1310    -3.9320 hc         1 PGG       0.008700
     29 H82         -2.7710    -1.1330    -3.0510 hc         1 PGG       0.008700
     30 H91         -1.0720    -3.5820    -3.6500 hc         1 PGG       0.040700
     31 H92         -2.6060    -3.5840    -2.7690 hc         1 PGG       0.040700
     32 H101        -2.2160    -2.6670    -5.6430 hc         1 PGG       0.010200
     33 H102        -3.7500    -2.6670    -4.7620 hc         1 PGG       0.010200
     34 HN21        -4.0010    -4.1810    -6.9790 hn         1 PGG       0.191500
     35 H121        -4.4480    -6.8050    -5.9790 h1         1 PGG       0.019700
     36 H122        -2.9130    -6.8060    -6.8600 h1         1 PGG       0.019700
@<TRIPOS>BOND
     1     1     2 ar  
     2     1     6 ar  
     3     1     8 1   
     4     2     3 ar  
     5     2    24 1   
     6     3     4 ar  
     7     3    25 1   
     8     4     5 ar  
     9     4    21 1   
    10     5     6 ar  
    11     5    26 1   
    12     6    27 1   
    13     7     8 1   
    14     7     9 1   
    15     7    10 1   
    16     7    11 1   
    17    11    12 1   
    18    11    28 1   
    19    11    29 1   
    20    12    13 1   
    21    12    30 1   
    22    12    31 1   
    23    13    14 1   
    24    13    32 1   
    25    13    33 1   
    26    14    15 1   
    27    14    16 2   
    28    15    17 1   
    29    15    34 1   
    30    17    18 1   
    31    17    35 1   
    32    17    36 1   
    33    18    19 1   
    34    18    20 1   
    35    21    22 1   
    36    21    23 1   
@<TRIPOS>SUBSTRUCTURE
     1 PGG         1 TEMP              0 ****  ****    0 ROOT
