@<TRIPOS>MOLECULE
PGH
   14    13     1     0     0
SMALL
bcc


@<TRIPOS>ATOM
      1 C1           0.0000     0.0000     0.0000 c          1 PGH       0.549100
      2 C2           1.5060     0.0000     0.0000 c3         1 PGH       0.185400
      3 N2          -0.6760     0.0000     1.1660 ns         1 PGH      -0.135400
      4 O2          -2.0920     0.0010     1.1650 oh         1 PGH      -0.471100
      5 O1          -0.6060     0.0030    -1.0500 o          1 PGH      -0.627100
      6 O1P          1.9830     0.0010    -1.3460 os         1 PGH      -0.417200
      7 O2P          4.0490    -1.2100    -0.5530 o          1 PGH      -0.761833
      8 O3P          4.1980     0.0010    -2.7610 o          1 PGH      -0.761833
      9 O4P          4.0920     1.3110    -0.4850 o          1 PGH      -0.761833
     10 P            3.5900    -0.0010    -1.2710 p5         1 PGH       0.666900
     11 H21          1.8670    -0.8850     0.5100 h1         1 PGH       0.013200
     12 H22          1.8670     0.8840     0.5120 h1         1 PGH       0.013200
     13 HN          -0.1760    -0.0010     2.0340 hn         1 PGH       0.150500
     14 HO2         -2.4070    -0.0010     2.0540 ho         1 PGH       0.356000
@<TRIPOS>BOND
     1     1     2 1   
     2     1     3 1   
     3     1     5 2   
     4     2     6 1   
     5     2    11 1   
     6     2    12 1   
     7     3     4 1   
     8     3    13 1   
     9     4    14 1   
    10     6    10 1   
    11     7    10 1   
    12     8    10 1   
    13     9    10 1   
@<TRIPOS>SUBSTRUCTURE
     1 PGH         1 TEMP              0 ****  ****    0 ROOT
