@<TRIPOS>MOLECULE
PGI
   43    45     1     0     0
SMALL
bcc


@<TRIPOS>ATOM
      1 O6          0.5170   -0.2410   -0.7560 oh        1 PGI     -0.598800
      2 C6          1.8840   -0.2490   -0.4190 c3        1 PGI      0.122400
      3 C5          2.0520   -0.1180    1.1130 c3        1 PGI     -0.006000
      4 C4          3.5510    0.1160    1.4390 c3        1 PGI      0.105100
      5 O4          3.8090    1.4520    1.0490 oh        1 PGI     -0.584800
      6 C3          3.8280   -0.0330    2.9470 c3        1 PGI      0.073100
      7 O3          5.2050    0.1690    3.2030 oh        1 PGI     -0.590800
      8 C2          3.5340   -1.4770    3.3990 c3        1 PGI      0.214400
      9 O2          3.5280   -1.5980    4.8070 oh        1 PGI     -0.591800
     10 N1          1.5210   -1.2590    1.8450 na        1 PGI     -0.010100
     11 C8          0.2850   -1.8900    1.6520 cc        1 PGI     -0.109300
     12 C7          0.1650   -2.8890    2.6380 cd        1 PGI     -0.058600
     13 N2          1.3430   -2.8480    3.4060 na        1 PGI     -0.113100
     14 C1          2.1600   -1.8580    2.9130 cc        1 PGI     -0.001900
     15 C9         -0.9470   -3.8380    2.8540 c3        1 PGI     -0.034100
     16 C10        -1.4280   -3.8610    4.2970 c3        1 PGI     -0.028100
     17 C14        -2.6200   -4.7420    4.4350 ca        1 PGI     -0.111300
     18 C13        -2.4860   -6.0430    4.9290 ca        1 PGI     -0.122000
     19 C12        -3.6080   -6.8590    5.0680 ca        1 PGI     -0.120000
     20 C15        -3.8890   -4.2640    4.0840 ca        1 PGI     -0.122000
     21 C16        -5.0090   -5.0820    4.2240 ca        1 PGI     -0.120000
     22 C11        -4.8700   -6.3800    4.7150 ca        1 PGI     -0.111000
     23 H6          0.2530    0.6730   -0.9250 ho        1 PGI      0.428000
     24 H6C1        2.2860   -1.2300   -0.7920 h1        1 PGI      0.086700
     25 H6C2        2.4480    0.6010   -0.8890 h1        1 PGI      0.086700
     26 H5          1.4650    0.7900    1.4570 h1        1 PGI      0.114700
     27 H4          4.1950   -0.6040    0.8600 h1        1 PGI      0.077700
     28 HA          4.7630    1.5260    0.9060 ho        1 PGI      0.437000
     29 H3          3.2010    0.6950    3.5320 h1        1 PGI      0.088700
     30 HB          5.3490    1.1240    3.2650 ho        1 PGI      0.438000
     31 H2          4.2930   -2.1860    2.9530 h1        1 PGI      0.104700
     32 HC          4.3840   -1.2600    5.1180 ho        1 PGI      0.461000
     33 H8         -0.3910   -1.5970    0.8380 h4        1 PGI      0.250000
     34 HD          1.5430   -3.3950    4.2160 hn        1 PGI      0.362700
     35 H9C1       -0.6200   -4.8710    2.5470 hc        1 PGI      0.093200
     36 H9C2       -1.7980   -3.5420    2.1790 hc        1 PGI      0.093200
     37 H101       -0.6060   -4.2280    4.9670 hc        1 PGI      0.051200
     38 H102       -1.6910   -2.8190    4.6230 hc        1 PGI      0.051200
     39 H13        -1.4950   -6.4250    5.2160 ha        1 PGI      0.129000
     40 H12        -3.4970   -7.8820    5.4600 ha        1 PGI      0.144000
     41 H15        -4.0030   -3.2380    3.7040 ha        1 PGI      0.129000
     42 H16        -6.0040   -4.7000    3.9490 ha        1 PGI      0.144000
     43 H11        -5.7550   -7.0240    4.8270 ha        1 PGI      0.146000
@<TRIPOS>BOND
     1    1    2 1   
     2    1   23 1   
     3    2    3 1   
     4    2   24 1   
     5    2   25 1   
     6    3    4 1   
     7    3   10 1   
     8    3   26 1   
     9    4    5 1   
    10    4    6 1   
    11    4   27 1   
    12    5   28 1   
    13    6    7 1   
    14    6    8 1   
    15    6   29 1   
    16    7   30 1   
    17    8    9 1   
    18    8   14 1   
    19    8   31 1   
    20    9   32 1   
    21   10   11 1   
    22   10   14 2   
    23   11   12 2   
    24   11   33 1   
    25   12   13 1   
    26   12   15 1   
    27   13   14 1   
    28   13   34 1   
    29   15   16 1   
    30   15   35 1   
    31   15   36 1   
    32   16   17 1   
    33   16   37 1   
    34   16   38 1   
    35   17   18 ar  
    36   17   20 ar  
    37   18   19 ar  
    38   18   39 1   
    39   19   22 ar  
    40   19   40 1   
    41   20   21 ar  
    42   20   41 1   
    43   21   22 ar  
    44   21   42 1   
    45   22   43 1   
@<TRIPOS>SUBSTRUCTURE
     1 PGI         1 TEMP              0 ****  ****    0 ROOT
