@<TRIPOS>MOLECULE
molecule
   43    45     1     0     0
SMALL
bcc


@<TRIPOS>ATOM
      1 O6           0.0000     0.0000     0.0000 oh         1 PGI      -0.623800
      2 C6           1.4290     0.0000     0.0000 c3         1 PGI       0.129400
      3 C5           1.9390     0.0000     1.4430 c3         1 PGI       0.025000
      4 C4           3.4660     0.1220     1.4470 c3         1 PGI       0.126100
      5 O4           3.8410     1.4340     1.0200 oh         1 PGI      -0.571800
      6 C3           3.9900    -0.1260     2.8640 c3         1 PGI       0.123100
      7 O3           5.3870     0.1720     2.9180 oh         1 PGI      -0.578800
      8 C2           3.7620    -1.5990     3.2260 c3         1 PGI       0.194400
      9 O2           3.9780    -1.7890     4.6260 oh         1 PGI      -0.576800
     10 N1           1.5560    -1.2560     2.0990 na         1 PGI       0.040900
     11 C8           0.3670    -1.8670     2.0040 cc         1 PGI      -0.130300
     12 C7           0.4110    -2.9880     2.7490 cd         1 PGI      -0.080600
     13 N2           1.6620    -3.0480     3.3030 na         1 PGI      -0.107100
     14 C1           2.3390    -1.9620     2.8770 cc         1 PGI      -0.036900
     15 C9          -0.7030    -3.9850     2.9380 c3         1 PGI      -0.015100
     16 C10         -1.6230    -3.5150     4.0660 c3         1 PGI      -0.028100
     17 C14         -2.7370    -4.5120     4.2550 ca         1 PGI      -0.111300
     18 C13         -2.5790    -5.5660     5.1350 ca         1 PGI      -0.121000
     19 C12         -3.6010    -6.4820     5.3080 ca         1 PGI      -0.117000
     20 C15         -3.9190    -4.3700     3.5520 ca         1 PGI      -0.121000
     21 C16         -4.9390    -5.2860     3.7220 ca         1 PGI      -0.117000
     22 C11         -4.7810    -6.3410     4.6010 ca         1 PGI      -0.110000
     23 H6          -0.3140     0.3620    -0.8120 ho         1 PGI       0.439000
     24 H6C1         1.7900     0.8850    -0.5110 h1         1 PGI       0.063200
     25 H6C2         1.7910    -0.8840    -0.5110 h1         1 PGI       0.063200
     26 H5           1.5090     0.8350     1.9840 h1         1 PGI       0.128700
     27 H4           3.8860    -0.6160     0.7740 h1         1 PGI       0.061700
     28 HA           4.5250     1.3710     0.3740 ho         1 PGI       0.438000
     29 H3           3.4530     0.5040     3.5630 h1         1 PGI       0.081700
     30 HB           5.5470     0.8080     3.5950 ho         1 PGI       0.440000
     31 H2           4.4450    -2.2210     2.6600 h1         1 PGI       0.093700
     32 HC           4.6670    -2.4190     4.7560 ho         1 PGI       0.437000
     33 H8          -0.4830    -1.5190     1.4290 h4         1 PGI       0.248000
     34 HD           2.0090    -3.7640     3.9100 hn         1 PGI       0.357700
     35 H9C1        -1.2720    -4.0690     2.0200 hc         1 PGI       0.082700
     36 H9C2        -0.2840    -4.9510     3.1920 hc         1 PGI       0.082700
     37 H101        -1.0540    -3.4310     4.9850 hc         1 PGI       0.055700
     38 H102        -2.0420    -2.5490     3.8120 hc         1 PGI       0.055700
     39 H13         -1.6540    -5.6750     5.6880 ha         1 PGI       0.126500
     40 H12         -3.4780    -7.3080     5.9970 ha         1 PGI       0.141500
     41 H15         -4.0430    -3.5430     2.8630 ha         1 PGI       0.126500
     42 H16         -5.8640    -5.1750     3.1690 ha         1 PGI       0.141500
     43 H11         -5.5810    -7.0590     4.7350 ha         1 PGI       0.143000
@<TRIPOS>BOND
     1     1     2 1
     2     1    23 1
     3     2     3 1
     4     2    24 1
     5     2    25 1
     6     3     4 1
     7     3    10 1
     8     3    26 1
     9     4     5 1
    10     4     6 1
    11     4    27 1
    12     5    28 1
    13     6     7 1
    14     6     8 1
    15     6    29 1
    16     7    30 1
    17     8     9 1
    18     8    14 1
    19     8    31 1
    20     9    32 1
    21    10    11 1
    22    10    14 2
    23    11    12 2
    24    11    33 1
    25    12    13 1
    26    12    15 1
    27    13    14 1
    28    13    34 1
    29    15    16 1
    30    15    35 1
    31    15    36 1
    32    16    17 1
    33    16    37 1
    34    16    38 1
    35    17    18 ar
    36    17    20 ar
    37    18    19 ar
    38    18    39 1
    39    19    22 ar
    40    19    40 1
    41    20    21 ar
    42    20    41 1
    43    21    22 ar
    44    21    42 1
    45    22    43 1
@<TRIPOS>SUBSTRUCTURE
     1 PGI         1 TEMP              0 ****  ****    0 ROOT
