@<TRIPOS>MOLECULE
PGJ
   49    52     1     0     0
SMALL
bcc


@<TRIPOS>ATOM
      1 C1          0.0010    0.2560   -0.2990 cc        1 PGJ     -0.009800
      2 N2          1.4200    0.4130   -0.5450 na        1 PGJ     -0.369900
      3 O3          2.0520    0.2380    0.6500 os        1 PGJ     -0.205400
      4 C4          1.0970    0.0650    1.6860 c         1 PGJ      0.705800
      5 C5         -0.2450    0.0910    1.0450 cd        1 PGJ     -0.130400
      6 C6          2.0400   -0.4180   -1.5990 c3        1 PGJ      0.360600
      7 O7          2.2690   -1.7730   -1.2780 os        1 PGJ     -0.415600
      8 C10         1.1380   -2.6350   -1.4440 c3        1 PGJ      0.117400
      9 C11         1.6210   -4.0350   -1.1460 c3        1 PGJ     -0.096100
     10 C17        -0.9520    0.4560   -1.4060 ca        1 PGJ      0.512100
     11 C18        -1.3870    1.7690   -1.6890 ca        1 PGJ     -0.374600
     12 C19        -2.2960    1.9220   -2.7550 ca        1 PGJ      0.457200
     13 N20        -2.7480    0.8900   -3.4870 nb        1 PGJ     -0.710000
     14 C21        -2.2550   -0.3440   -3.1260 ca        1 PGJ      0.857300
     15 N22        -1.3650   -0.6240   -2.1150 nb        1 PGJ     -0.682000
     16 O23        -2.6240   -1.4900   -3.8210 os        1 PGJ     -0.317400
     17 C24        -3.6580   -1.3540   -4.7510 ca        1 PGJ      0.060100
     18 C25        -3.3510   -1.5420   -6.1020 ca        1 PGJ     -0.084000
     19 C26        -4.3820   -1.5670   -7.0390 ca        1 PGJ     -0.157000
     20 C27        -5.7060   -1.3890   -6.6350 ca        1 PGJ     -0.085000
     21 C28        -6.0190   -1.1880   -5.2940 ca        1 PGJ     -0.205000
     22 C29        -4.9930   -1.1680   -4.3380 ca        1 PGJ      0.135100
     23 O34        -5.2190   -0.9750   -2.9980 oh        1 PGJ     -0.485100
     24 C35        -1.4700   -0.0340    1.7930 ca        1 PGJ     -0.047800
     25 C36        -1.4430   -0.5870    3.0860 ca        1 PGJ     -0.084500
     26 C37        -2.6100   -0.7300    3.8260 ca        1 PGJ     -0.167000
     27 C38        -3.8370   -0.3100    3.2780 ca        1 PGJ      0.136900
     28 C39        -3.8760    0.2540    1.9900 ca        1 PGJ     -0.167000
     29 C40        -2.6990    0.3870    1.2640 ca        1 PGJ     -0.084500
     30 F45        -4.9790   -0.4470    3.9920 f         1 PGJ     -0.137900
     31 O47         1.5570   -0.0330    2.8110 o         1 PGJ     -0.545500
     32 H61         3.0800    0.0030   -1.7390 h2        1 PGJ      0.087200
     33 H62         1.4080   -0.3020   -2.5210 h2        1 PGJ      0.087200
     34 H101        0.7550   -2.5520   -2.4960 h1        1 PGJ      0.042700
     35 H102        0.3290   -2.3260   -0.7310 h1        1 PGJ      0.042700
     36 H111        2.4290   -4.3300   -1.8570 hc        1 PGJ      0.047700
     37 H112        2.0280   -4.0950   -0.1080 hc        1 PGJ      0.047700
     38 H113        0.7660   -4.7450   -1.2470 hc        1 PGJ      0.047700
     39 H18        -1.0300    2.6280   -1.1090 ha        1 PGJ      0.174000
     40 H19        -2.6790    2.9190   -3.0410 h4        1 PGJ      0.039100
     41 H25        -2.3030   -1.6820   -6.4060 ha        1 PGJ      0.153000
     42 H26        -4.1470   -1.7240   -8.1020 ha        1 PGJ      0.142000
     43 H27        -6.5130   -1.4050   -7.3830 ha        1 PGJ      0.139000
     44 H28        -7.0630   -1.0450   -4.9790 ha        1 PGJ      0.140000
     45 H34        -6.1700   -0.8410   -2.8730 ho        1 PGJ      0.425000
     46 H36        -0.4820   -0.9070    3.5240 ha        1 PGJ      0.151000
     47 H37        -2.5840   -1.1650    4.8350 ha        1 PGJ      0.152500
     48 H39        -4.8370    0.5830    1.5680 ha        1 PGJ      0.152500
     49 H40        -2.7400    0.8360    0.2580 ha        1 PGJ      0.151000
@<TRIPOS>BOND
     1    1    2 1   
     2    1    5 2   
     3    1   10 1   
     4    2    3 1   
     5    2    6 1   
     6    3    4 1   
     7    4    5 1   
     8    4   31 2   
     9    5   24 1   
    10    6    7 1   
    11    6   32 1   
    12    6   33 1   
    13    7    8 1   
    14    8    9 1   
    15    8   34 1   
    16    8   35 1   
    17    9   36 1   
    18    9   37 1   
    19    9   38 1   
    20   10   11 ar  
    21   10   15 ar  
    22   11   12 ar  
    23   11   39 1   
    24   12   13 ar  
    25   12   40 1   
    26   13   14 ar  
    27   14   15 ar  
    28   14   16 1   
    29   16   17 1   
    30   17   18 ar  
    31   17   22 ar  
    32   18   19 ar  
    33   18   41 1   
    34   19   20 ar  
    35   19   42 1   
    36   20   21 ar  
    37   20   43 1   
    38   21   22 ar  
    39   21   44 1   
    40   22   23 1   
    41   23   45 1   
    42   24   25 ar  
    43   24   29 ar  
    44   25   26 ar  
    45   25   46 1   
    46   26   27 ar  
    47   26   47 1   
    48   27   28 ar  
    49   27   30 1   
    50   28   29 ar  
    51   28   48 1   
    52   29   49 1   
@<TRIPOS>SUBSTRUCTURE
     1 PGJ         1 TEMP              0 ****  ****    0 ROOT
