@<TRIPOS>MOLECULE
molecule
  129   128     1     0     0
SMALL
bcc


@<TRIPOS>ATOM
      1 C48          0.0000     0.0000     0.0000 c3         1 PGK      -0.092100
      2 C47          1.5300     0.0000     0.0000 c3         1 PGK      -0.084400
      3 C46          2.0410     0.0000     1.4420 c3         1 PGK      -0.081400
      4 C45          3.5700     0.0000     1.4410 c3         1 PGK      -0.082400
      5 C44          4.0810    -0.0000     2.8830 c3         1 PGK      -0.081400
      6 C43          5.6110    -0.0000     2.8830 c3         1 PGK      -0.079400
      7 C42          6.1220    -0.0000     4.3260 c3         1 PGK      -0.088400
      8 C41          7.6520     0.0000     4.3240 c3         1 PGK      -0.087400
      9 C40          8.1630     0.0000     5.7660 c3         1 PGK       0.014700
     10 Br2          7.6430     1.6810     6.6460 br         1 PGK      -0.162400
     11 C39          9.6880    -0.1260     5.7680 c3         1 PGK       0.013700
     12 Br1         10.4710     1.3930     4.7950 br         1 PGK      -0.160400
     13 C38         10.1990    -0.1260     7.2100 c3         1 PGK      -0.087400
     14 C37         11.7080    -0.3760     7.2170 c3         1 PGK      -0.087400
     15 C36         12.2190    -0.3760     8.6590 c3         1 PGK      -0.079400
     16 C35         13.7270    -0.6270     8.6660 c3         1 PGK      -0.079400
     17 C34         14.2380    -0.6270    10.1080 c3         1 PGK      -0.084400
     18 C33         15.7470    -0.8770    10.1140 c3         1 PGK      -0.072400
     19 C32         16.2580    -0.8770    11.5570 c3         1 PGK      -0.124400
     20 C31         17.7450    -1.1240    11.5630 c          1 PGK       0.641100
     21 O31         18.3360    -1.2830    10.5210 o          1 PGK      -0.567000
     22 O2          18.4140    -1.1660    12.7270 os         1 PGK      -0.413900
     23 C2          19.8450    -1.4040    12.7330 c3         1 PGK       0.154100
     24 C1          20.5850    -0.0670    12.6520 c3         1 PGK       0.141400
     25 O3P         20.3230     0.6950    13.8320 os         1 PGK      -0.523200
     26 P           21.1270     2.0810    13.6790 p5         1 PGK       1.280800
     27 O1P         22.5570     1.7960    13.4250 o          1 PGK      -0.822000
     28 O2P         20.5200     2.9210    12.4470 o          1 PGK      -0.822000
     29 O4P         20.9840     2.9370    15.0340 os         1 PGK      -0.543200
     30 C4          21.8100     4.0930    14.8830 c3         1 PGK       0.147400
     31 C5          21.7180     4.9550    16.1430 c3         1 PGK       0.150100
     32 O5          20.3880     5.4580    16.2810 oh         1 PGK      -0.592800
     33 C6          22.6960     6.1260    16.0330 c3         1 PGK       0.122400
     34 O6          22.6960     6.8650    17.2560 oh         1 PGK      -0.617800
     35 C3          20.2370    -2.1250    14.0240 c3         1 PGK       0.167400
     36 O3          19.9870    -1.2550    15.1600 os         1 PGK      -0.370900
     37 C11         20.2580    -1.6810    16.4040 c          1 PGK       0.638100
     38 O11         20.7090    -2.7880    16.5780 o          1 PGK      -0.592000
     39 C12         19.9980    -0.7770    17.5820 c3         1 PGK      -0.124400
     40 C13         20.3900    -1.4990    18.8730 c3         1 PGK      -0.072400
     41 C14         20.1270    -0.5830    20.0700 c3         1 PGK      -0.084400
     42 C15         20.5180    -1.3030    21.3610 c3         1 PGK      -0.080400
     43 C16         20.2550    -0.3870    22.5570 c3         1 PGK      -0.082400
     44 C17         20.6460    -1.1080    23.8480 c3         1 PGK      -0.081400
     45 C18         20.3830    -0.1920    25.0440 c3         1 PGK      -0.082400
     46 C19         20.7740    -0.9120    26.3360 c3         1 PGK      -0.082400
     47 C20         20.5110     0.0040    27.5320 c3         1 PGK      -0.082400
     48 C21         20.9020    -0.7170    28.8240 c3         1 PGK      -0.082400
     49 C22         20.6390     0.1990    30.0200 c3         1 PGK      -0.082400
     50 C23         21.0310    -0.5210    31.3100 c3         1 PGK      -0.082400
     51 C24         20.7670     0.3950    32.5070 c3         1 PGK      -0.082400
     52 C25         21.1590    -0.3260    33.7980 c3         1 PGK      -0.084400
     53 C26         20.8960     0.5910    34.9940 c3         1 PGK      -0.092100
     54 H481        -0.3610    -0.0260    -1.0210 hc         1 PGK       0.031700
     55 H482        -0.3610    -0.8710     0.5330 hc         1 PGK       0.031700
     56 H483        -0.3610     0.8970     0.4880 hc         1 PGK       0.031700
     57 H471         1.8910    -0.8840    -0.5110 hc         1 PGK       0.040200
     58 H472         1.8910     0.8840    -0.5110 hc         1 PGK       0.040200
     59 H461         1.6800    -0.8850     1.9530 hc         1 PGK       0.041200
     60 H462         1.6800     0.8850     1.9530 hc         1 PGK       0.041200
     61 H451         3.9310    -0.8850     0.9300 hc         1 PGK       0.040700
     62 H452         3.9310     0.8850     0.9300 hc         1 PGK       0.040700
     63 H441         3.7200     0.8840     3.3940 hc         1 PGK       0.041700
     64 H442         3.7200    -0.8840     3.3940 hc         1 PGK       0.041700
     65 H431         5.9720     0.8840     2.3730 hc         1 PGK       0.042200
     66 H432         5.9720    -0.8840     2.3730 hc         1 PGK       0.042200
     67 H421         5.7610    -0.8850     4.8360 hc         1 PGK       0.049200
     68 H422         5.7610     0.8840     4.8370 hc         1 PGK       0.049200
     69 H411         8.0130     0.8850     3.8130 hc         1 PGK       0.062700
     70 H412         8.0130    -0.8840     3.8130 hc         1 PGK       0.062700
     71 H40          7.7310    -0.8360     6.3020 h1         1 PGK       0.084700
     72 H39          9.9740    -1.0510     5.2830 h1         1 PGK       0.085700
     73 H381         9.7000    -0.9080     7.7700 hc         1 PGK       0.062700
     74 H382         9.9900     0.8340     7.6670 hc         1 PGK       0.062700
     75 H371        12.2060     0.4060     6.6570 hc         1 PGK       0.050200
     76 H372        11.9170    -1.3360     6.7600 hc         1 PGK       0.050200
     77 H361        12.0100     0.5840     9.1160 hc         1 PGK       0.041200
     78 H362        11.7200    -1.1580     9.2180 hc         1 PGK       0.041200
     79 H351        14.2260     0.1560     8.1070 hc         1 PGK       0.044700
     80 H352        13.9360    -1.5860     8.2090 hc         1 PGK       0.044700
     81 H341        13.7400    -1.4090    10.6680 hc         1 PGK       0.039700
     82 H342        14.0290     0.3330    10.5660 hc         1 PGK       0.039700
     83 H331        16.2450    -0.0940     9.5550 hc         1 PGK       0.058700
     84 H332        15.9560    -1.8360     9.6570 hc         1 PGK       0.058700
     85 H321        15.7600    -1.6590    12.1170 hc         1 PGK       0.070700
     86 H322        16.0500     0.0830    12.0140 hc         1 PGK       0.070700
     87 H2          20.1130    -2.0170    11.8810 h1         1 PGK       0.068700
     88 H11         21.6490    -0.2480    12.5680 h1         1 PGK       0.069200
     89 H12         20.2420     0.4830    11.7830 h1         1 PGK       0.069200
     90 H41         21.4740     4.6670    14.0280 h1         1 PGK       0.063200
     91 H42         22.8370     3.7850    14.7290 h1         1 PGK       0.063200
     92 H5          21.9690     4.3550    17.0100 h1         1 PGK       0.038700
     93 HO5         20.0130     5.1410    17.0860 ho         1 PGK       0.397000
     94 H61         23.6930     5.7470    15.8400 h1         1 PGK       0.030200
     95 H62         22.3930     6.7740    15.2190 h1         1 PGK       0.030200
     96 HO6         23.3940     7.4980    17.2410 ho         1 PGK       0.389000
     97 H31         19.6490    -3.0290    14.1260 h1         1 PGK       0.046200
     98 H32         21.2890    -2.3810    13.9910 h1         1 PGK       0.046200
     99 H121        20.5870     0.1270    17.4800 hc         1 PGK       0.079200
    100 H122        18.9460    -0.5220    17.6160 hc         1 PGK       0.079200
    101 H131        21.4420    -1.7550    18.8390 hc         1 PGK       0.052700
    102 H132        19.8020    -2.4030    18.9750 hc         1 PGK       0.052700
    103 H141        19.0750    -0.3260    20.1040 hc         1 PGK       0.042200
    104 H142        20.7150     0.3210    19.9680 hc         1 PGK       0.042200
    105 H151        19.9290    -2.2070    21.4620 hc         1 PGK       0.040700
    106 H152        21.5700    -1.5590    21.3270 hc         1 PGK       0.040700
    107 H161        19.2030    -0.1300    22.5910 hc         1 PGK       0.041700
    108 H162        20.8430     0.5170    22.4560 hc         1 PGK       0.041700
    109 H171        21.6980    -1.3640    23.8140 hc         1 PGK       0.039700
    110 H172        20.0570    -2.0120    23.9490 hc         1 PGK       0.039700
    111 H181        19.3310     0.0640    25.0790 hc         1 PGK       0.040700
    112 H182        20.9710     0.7120    24.9430 hc         1 PGK       0.040700
    113 H191        20.1860    -1.8160    26.4380 hc         1 PGK       0.040200
    114 H192        21.8270    -1.1680    26.3020 hc         1 PGK       0.040200
    115 H201        19.4580     0.2600    27.5660 hc         1 PGK       0.041200
    116 H202        21.0990     0.9080    27.4300 hc         1 PGK       0.041200
    117 H211        20.3140    -1.6210    28.9250 hc         1 PGK       0.040200
    118 H212        21.9540    -0.9730    28.7890 hc         1 PGK       0.040200
    119 H221        19.5870     0.4550    30.0540 hc         1 PGK       0.041200
    120 H222        21.2270     1.1040    29.9180 hc         1 PGK       0.041200
    121 H231        20.4430    -1.4250    31.4120 hc         1 PGK       0.040200
    122 H232        22.0830    -0.7760    31.2760 hc         1 PGK       0.040200
    123 H241        19.7150     0.6510    32.5420 hc         1 PGK       0.040700
    124 H242        21.3550     1.3000    32.4060 hc         1 PGK       0.040700
    125 H251        22.2110    -0.5820    33.7630 hc         1 PGK       0.039200
    126 H252        20.5710    -1.2300    33.8990 hc         1 PGK       0.039200
    127 H261        21.1660     0.0770    35.9090 hc         1 PGK       0.031700
    128 H262        19.8450     0.8530    35.0240 hc         1 PGK       0.031700
    129 H263        21.4900     1.4910    34.8970 hc         1 PGK       0.031700
@<TRIPOS>BOND
     1     1     2 1
     2     1    54 1
     3     1    55 1
     4     1    56 1
     5     2     3 1
     6     2    57 1
     7     2    58 1
     8     3     4 1
     9     3    59 1
    10     3    60 1
    11     4     5 1
    12     4    61 1
    13     4    62 1
    14     5     6 1
    15     5    63 1
    16     5    64 1
    17     6     7 1
    18     6    65 1
    19     6    66 1
    20     7     8 1
    21     7    67 1
    22     7    68 1
    23     8     9 1
    24     8    69 1
    25     8    70 1
    26     9    10 1
    27     9    11 1
    28     9    71 1
    29    11    12 1
    30    11    13 1
    31    11    72 1
    32    13    14 1
    33    13    73 1
    34    13    74 1
    35    14    15 1
    36    14    75 1
    37    14    76 1
    38    15    16 1
    39    15    77 1
    40    15    78 1
    41    16    17 1
    42    16    79 1
    43    16    80 1
    44    17    18 1
    45    17    81 1
    46    17    82 1
    47    18    19 1
    48    18    83 1
    49    18    84 1
    50    19    20 1
    51    19    85 1
    52    19    86 1
    53    20    21 2
    54    20    22 1
    55    22    23 1
    56    23    24 1
    57    23    35 1
    58    23    87 1
    59    24    25 1
    60    24    88 1
    61    24    89 1
    62    25    26 1
    63    26    27 1
    64    26    28 1
    65    26    29 1
    66    29    30 1
    67    30    31 1
    68    30    90 1
    69    30    91 1
    70    31    32 1
    71    31    33 1
    72    31    92 1
    73    32    93 1
    74    33    34 1
    75    33    94 1
    76    33    95 1
    77    34    96 1
    78    35    36 1
    79    35    97 1
    80    35    98 1
    81    36    37 1
    82    37    38 2
    83    37    39 1
    84    39    40 1
    85    39    99 1
    86    39   100 1
    87    40    41 1
    88    40   101 1
    89    40   102 1
    90    41    42 1
    91    41   103 1
    92    41   104 1
    93    42    43 1
    94    42   105 1
    95    42   106 1
    96    43    44 1
    97    43   107 1
    98    43   108 1
    99    44    45 1
   100    44   109 1
   101    44   110 1
   102    45    46 1
   103    45   111 1
   104    45   112 1
   105    46    47 1
   106    46   113 1
   107    46   114 1
   108    47    48 1
   109    47   115 1
   110    47   116 1
   111    48    49 1
   112    48   117 1
   113    48   118 1
   114    49    50 1
   115    49   119 1
   116    49   120 1
   117    50    51 1
   118    50   121 1
   119    50   122 1
   120    51    52 1
   121    51   123 1
   122    51   124 1
   123    52    53 1
   124    52   125 1
   125    52   126 1
   126    53   127 1
   127    53   128 1
   128    53   129 1
@<TRIPOS>SUBSTRUCTURE
     1 PGK         1 TEMP              0 ****  ****    0 ROOT
