@<TRIPOS>MOLECULE
PGK
  129   128     1     0     0
SMALL
bcc


@<TRIPOS>ATOM
      1 C48         0.3000   -3.0140    1.5630 c3        1 PGK     -0.092100
      2 C47         1.7140   -2.5260    1.3800 c3        1 PGK     -0.080400
      3 C46         2.2590   -1.9100    2.6510 c3        1 PGK     -0.079400
      4 C45         3.6790   -1.4210    2.4620 c3        1 PGK     -0.079400
      5 C44         4.2220   -0.8060    3.7350 c3        1 PGK     -0.078400
      6 C43         5.6410   -0.3170    3.5440 c3        1 PGK     -0.078400
      7 C42         6.1830    0.2980    4.8180 c3        1 PGK     -0.083400
      8 C41         7.6020    0.7870    4.6170 c3        1 PGK     -0.082400
      9 C40         8.1990    1.3550    5.8910 c3        1 PGK      0.015700
     10 BR2         7.4000    3.0670    6.3670 br        1 PGK     -0.162400
     11 C39         9.7150    1.4400    5.8110 c3        1 PGK      0.013700
     12 BR1        10.2990    2.8030    4.5470 br        1 PGK     -0.160400
     13 C38        10.3410    1.6330    7.1800 c3        1 PGK     -0.082400
     14 C37        11.8060    1.2510    7.1960 c3        1 PGK     -0.084400
     15 C36        12.3840    1.3870    8.5890 c3        1 PGK     -0.077400
     16 C35        13.8320    0.9470    8.6250 c3        1 PGK     -0.079400
     17 C34        14.4110    1.0790   10.0170 c3        1 PGK     -0.077400
     18 C33        15.8380    0.5760   10.0620 c3        1 PGK     -0.079400
     19 C32        16.4210    0.7320   11.4500 c3        1 PGK     -0.129400
     20 C31        17.7600    0.0620   11.5470 c         1 PGK      0.634100
     21 O31        18.1020   -1.0200   11.0600 o         1 PGK     -0.560000
     22 O2         18.6430    0.7800   12.2900 os        1 PGK     -0.425900
     23 C2         19.9790    0.2600   12.4510 c3        1 PGK      0.133100
     24 C1         20.8440    1.4850   12.7970 c3        1 PGK      0.182400
     25 O3P        22.1620    1.0570   12.9150 os        1 PGK     -0.581200
     26 P          23.3360    2.0880   12.3610 p5        1 PGK      1.423800
     27 O1P        24.5950    1.3270   12.3850 o         1 PGK     -0.811000
     28 O2P        22.7630    2.8800   11.2610 o         1 PGK     -0.811000
     29 O4P        23.3250    3.0570   13.7110 os        1 PGK     -0.581200
     30 C4         23.8450    2.4980   14.8750 c3        1 PGK      0.160400
     31 C5         22.7250    2.4040   15.9240 c3        1 PGK      0.072100
     32 O5         22.0880    3.6630   16.1130 oh        1 PGK     -0.644800
     33 C6         23.2810    1.9860   17.2840 c3        1 PGK      0.130400
     34 O6         22.2640    1.9360   18.2690 oh        1 PGK     -0.625800
     35 C3         20.0160   -0.8080   13.5380 c3        1 PGK      0.123400
     36 O3         19.6660   -0.1800   14.7830 os        1 PGK     -0.431900
     37 C11        19.9200   -0.8900   15.9210 c         1 PGK      0.636100
     38 O11        20.2320   -2.0800   15.8210 o         1 PGK     -0.561000
     39 C12        19.7750   -0.0520   17.1520 c3        1 PGK     -0.141400
     40 C13        19.6660   -0.9010   18.4000 c3        1 PGK     -0.071400
     41 C14        19.7910   -0.0380   19.6380 c3        1 PGK     -0.087400
     42 C15        19.7560   -0.8780   20.8960 c3        1 PGK     -0.075400
     43 C16        19.8810   -0.0160   22.1340 c3        1 PGK     -0.079400
     44 C17        19.8560   -0.8550   23.3940 c3        1 PGK     -0.078400
     45 C18        19.9830    0.0070   24.6310 c3        1 PGK     -0.079400
     46 C19        19.9620   -0.8320   25.8910 c3        1 PGK     -0.078400
     47 C20        20.0910    0.0300   27.1280 c3        1 PGK     -0.079400
     48 C21        20.0730   -0.8080   28.3880 c3        1 PGK     -0.078400
     49 C22        20.2040    0.0540   29.6250 c3        1 PGK     -0.079400
     50 C23        20.1870   -0.7840   30.8850 c3        1 PGK     -0.079400
     51 C24        20.3200    0.0780   32.1210 c3        1 PGK     -0.079400
     52 C25        20.3040   -0.7590   33.3830 c3        1 PGK     -0.080400
     53 C26        20.4360    0.0960   34.6160 c3        1 PGK     -0.092100
     54 H481       -0.3740   -2.1710    1.8510 hc        1 PGK      0.032033
     55 H482       -0.0810   -3.4640    0.6150 hc        1 PGK      0.032033
     56 H483        0.2520   -3.7890    2.3660 hc        1 PGK      0.032033
     57 H471        2.3710   -3.3810    1.0680 hc        1 PGK      0.038700
     58 H472        1.7470   -1.7670    0.5540 hc        1 PGK      0.038700
     59 H461        2.2280   -2.6680    3.4780 hc        1 PGK      0.039700
     60 H462        1.6040   -1.0540    2.9640 hc        1 PGK      0.039700
     61 H451        3.7080   -0.6630    1.6360 hc        1 PGK      0.039700
     62 H452        4.3330   -2.2770    2.1500 hc        1 PGK      0.039700
     63 H441        3.5680    0.0500    4.0480 hc        1 PGK      0.040700
     64 H442        4.1920   -1.5640    4.5610 hc        1 PGK      0.040700
     65 H431        6.2950   -1.1730    3.2300 hc        1 PGK      0.041700
     66 H432        5.6710    0.4420    2.7190 hc        1 PGK      0.041700
     67 H421        5.5240    1.1500    5.1310 hc        1 PGK      0.047700
     68 H422        6.1570   -0.4640    5.6420 hc        1 PGK      0.047700
     69 H411        7.6260    1.5530    3.7970 hc        1 PGK      0.060700
     70 H412        8.2380   -0.0760    4.2790 hc        1 PGK      0.060700
     71 H40         7.9280    0.6870    6.7520 h1        1 PGK      0.083700
     72 H39        10.0980    0.4830    5.3670 h1        1 PGK      0.084700
     73 H381       10.2220    2.6950    7.5220 hc        1 PGK      0.060200
     74 H382        9.7920    0.9860    7.9190 hc        1 PGK      0.060200
     75 H371       11.9260    0.1920    6.8430 hc        1 PGK      0.048700
     76 H372       12.3810    1.9040    6.4880 hc        1 PGK      0.048700
     77 H361       11.7850    0.7690    9.3090 hc        1 PGK      0.040200
     78 H362       12.3060    2.4550    8.9260 hc        1 PGK      0.040200
     79 H351       13.9090   -0.1200    8.2870 hc        1 PGK      0.043700
     80 H352       14.4320    1.5650    7.9070 hc        1 PGK      0.043700
     81 H341       14.3780    2.1540   10.3380 hc        1 PGK      0.039200
     82 H342       13.7830    0.4970   10.7430 hc        1 PGK      0.039200
     83 H331       16.4640    1.1450    9.3260 hc        1 PGK      0.058200
     84 H332       15.8740   -0.5050    9.7620 hc        1 PGK      0.058200
     85 H321       15.7520    0.2530   12.2140 hc        1 PGK      0.073700
     86 H322       16.5240    1.8170   11.7160 hc        1 PGK      0.073700
     87 H2         20.3200   -0.2120   11.4890 h1        1 PGK      0.083700
     88 H11        20.4850    1.9030   13.7810 h1        1 PGK      0.052200
     89 H12        20.7470    2.2630   11.9890 h1        1 PGK      0.052200
     90 H41        24.6510    3.1800   15.2670 h1        1 PGK      0.043700
     91 H42        24.2760    1.4790   14.6730 h1        1 PGK      0.043700
     92 H5         21.9420    1.6670   15.5820 h1        1 PGK      0.060700
     93 HO5        22.0660    4.0910   15.2440 ho        1 PGK      0.439000
     94 H61        24.0820    2.7000   17.6120 h1        1 PGK      0.044200
     95 H62        23.6940    0.9450   17.2300 h1        1 PGK      0.044200
     96 HO6        21.7690    2.7630   18.2020 ho        1 PGK      0.415000
     97 H31        19.2770   -1.6250   13.3330 h1        1 PGK      0.069200
     98 H32        21.0560   -1.2220   13.6100 h1        1 PGK      0.069200
     99 H121       20.6850    0.6140   17.2140 hc        1 PGK      0.089700
    100 H122       18.8800    0.6130   17.0430 hc        1 PGK      0.089700
    101 H131       18.6850   -1.4440   18.4070 hc        1 PGK      0.048700
    102 H132       20.4740   -1.6790   18.3920 hc        1 PGK      0.048700
    103 H141       20.7540    0.5420   19.5920 hc        1 PGK      0.051200
    104 H142       18.9550    0.7100   19.6610 hc        1 PGK      0.051200
    105 H151       20.5950   -1.6240   20.8720 hc        1 PGK      0.037200
    106 H152       18.7980   -1.4600   20.9360 hc        1 PGK      0.037200
    107 H161       19.0410    0.7280   22.1600 hc        1 PGK      0.040700
    108 H162       20.8380    0.5680   22.0890 hc        1 PGK      0.040700
    109 H171       20.6950   -1.5990   23.3660 hc        1 PGK      0.037700
    110 H172       18.8980   -1.4390   23.4380 hc        1 PGK      0.037700
    111 H181       19.1430    0.7500   24.6600 hc        1 PGK      0.039700
    112 H182       20.9390    0.5910   24.5850 hc        1 PGK      0.039700
    113 H191       20.8010   -1.5760   25.8610 hc        1 PGK      0.038700
    114 H192       19.0050   -1.4160   25.9380 hc        1 PGK      0.038700
    115 H201       19.2520    0.7740   27.1580 hc        1 PGK      0.039700
    116 H202       21.0480    0.6150   27.0800 hc        1 PGK      0.039700
    117 H211       20.9120   -1.5520   28.3570 hc        1 PGK      0.038700
    118 H212       19.1160   -1.3920   28.4370 hc        1 PGK      0.038700
    119 H221       21.1610    0.6390   29.5750 hc        1 PGK      0.039200
    120 H222       19.3650    0.7980   29.6560 hc        1 PGK      0.039200
    121 H231       21.0270   -1.5280   30.8530 hc        1 PGK      0.038700
    122 H232       19.2310   -1.3680   30.9350 hc        1 PGK      0.038700
    123 H241       19.4800    0.8220   32.1540 hc        1 PGK      0.039200
    124 H242       21.2760    0.6630   32.0710 hc        1 PGK      0.039200
    125 H251       19.3470   -1.3440   33.4300 hc        1 PGK      0.037700
    126 H252       21.1430   -1.5030   33.3480 hc        1 PGK      0.037700
    127 H261       20.4220   -0.5410   35.5340 hc        1 PGK      0.031367
    128 H262       19.5950    0.8270   34.6810 hc        1 PGK      0.031367
    129 H263       21.3950    0.6680   34.5990 hc        1 PGK      0.031367
@<TRIPOS>BOND
     1    1    2 1   
     2    1   54 1   
     3    1   55 1   
     4    1   56 1   
     5    2    3 1   
     6    2   57 1   
     7    2   58 1   
     8    3    4 1   
     9    3   59 1   
    10    3   60 1   
    11    4    5 1   
    12    4   61 1   
    13    4   62 1   
    14    5    6 1   
    15    5   63 1   
    16    5   64 1   
    17    6    7 1   
    18    6   65 1   
    19    6   66 1   
    20    7    8 1   
    21    7   67 1   
    22    7   68 1   
    23    8    9 1   
    24    8   69 1   
    25    8   70 1   
    26    9   10 1   
    27    9   11 1   
    28    9   71 1   
    29   11   12 1   
    30   11   13 1   
    31   11   72 1   
    32   13   14 1   
    33   13   73 1   
    34   13   74 1   
    35   14   15 1   
    36   14   75 1   
    37   14   76 1   
    38   15   16 1   
    39   15   77 1   
    40   15   78 1   
    41   16   17 1   
    42   16   79 1   
    43   16   80 1   
    44   17   18 1   
    45   17   81 1   
    46   17   82 1   
    47   18   19 1   
    48   18   83 1   
    49   18   84 1   
    50   19   20 1   
    51   19   85 1   
    52   19   86 1   
    53   20   21 2   
    54   20   22 1   
    55   22   23 1   
    56   23   24 1   
    57   23   35 1   
    58   23   87 1   
    59   24   25 1   
    60   24   88 1   
    61   24   89 1   
    62   25   26 1   
    63   26   27 1   
    64   26   28 1   
    65   26   29 1   
    66   29   30 1   
    67   30   31 1   
    68   30   90 1   
    69   30   91 1   
    70   31   32 1   
    71   31   33 1   
    72   31   92 1   
    73   32   93 1   
    74   33   34 1   
    75   33   94 1   
    76   33   95 1   
    77   34   96 1   
    78   35   36 1   
    79   35   97 1   
    80   35   98 1   
    81   36   37 1   
    82   37   38 2   
    83   37   39 1   
    84   39   40 1   
    85   39   99 1   
    86   39  100 1   
    87   40   41 1   
    88   40  101 1   
    89   40  102 1   
    90   41   42 1   
    91   41  103 1   
    92   41  104 1   
    93   42   43 1   
    94   42  105 1   
    95   42  106 1   
    96   43   44 1   
    97   43  107 1   
    98   43  108 1   
    99   44   45 1   
   100   44  109 1   
   101   44  110 1   
   102   45   46 1   
   103   45  111 1   
   104   45  112 1   
   105   46   47 1   
   106   46  113 1   
   107   46  114 1   
   108   47   48 1   
   109   47  115 1   
   110   47  116 1   
   111   48   49 1   
   112   48  117 1   
   113   48  118 1   
   114   49   50 1   
   115   49  119 1   
   116   49  120 1   
   117   50   51 1   
   118   50  121 1   
   119   50  122 1   
   120   51   52 1   
   121   51  123 1   
   122   51  124 1   
   123   52   53 1   
   124   52  125 1   
   125   52  126 1   
   126   53  127 1   
   127   53  128 1   
   128   53  129 1   
@<TRIPOS>SUBSTRUCTURE
     1 PGK         1 TEMP              0 ****  ****    0 ROOT
