@<TRIPOS>MOLECULE
molecule
   13    12     1     0     0
SMALL
bcc


@<TRIPOS>ATOM
      1 C1           0.0000     0.0000     0.0000 c3         1 PGO       0.133400
      2 C2           1.5300     0.0000     0.0000 c3         1 PGO       0.149100
      3 C3           2.0390     0.0000     1.4420 c3         1 PGO      -0.100100
      4 O1          -0.4770     1.1040     0.7730 oh         1 PGO      -0.594800
      5 O2           2.0060     1.1670    -0.6740 oh         1 PGO      -0.592800
      6 H11         -0.3610    -0.9260     0.4310 h1         1 PGO       0.023200
      7 H12         -0.3610     0.0890    -1.0180 h1         1 PGO       0.023200
      8 H2           1.8910    -0.8840    -0.5110 h1         1 PGO       0.029700
      9 H31          3.1040    -0.1960     1.4490 hc         1 PGO       0.045367
     10 H32          1.8470     0.9660     1.8930 hc         1 PGO       0.045367
     11 H33          1.5270    -0.7700     2.0060 hc         1 PGO       0.045367
     12 HO1         -1.4100     1.1860     0.6600 ho         1 PGO       0.398000
     13 HO2          2.5850     0.9130    -1.3720 ho         1 PGO       0.395000
@<TRIPOS>BOND
     1     1     2 1
     2     1     4 1
     3     1     6 1
     4     1     7 1
     5     2     3 1
     6     2     5 1
     7     2     8 1
     8     3     9 1
     9     3    10 1
    10     3    11 1
    11     4    12 1
    12     5    13 1
@<TRIPOS>SUBSTRUCTURE
     1 PGO         1 TEMP              0 ****  ****    0 ROOT
