@<TRIPOS>MOLECULE
PGO
   13    12     1     0     0
SMALL
bcc


@<TRIPOS>ATOM
      1 C1         -0.1380   -0.1110    0.0580 c3        1 PGO      0.137400
      2 C2          1.3910   -0.0470   -0.0410 c3        1 PGO      0.098100
      3 C3          2.0390   -0.0960    1.3280 c3        1 PGO     -0.130100
      4 O1         -0.6710    1.0030    0.7410 oh        1 PGO     -0.599800
      5 O2          1.6760    1.1760   -0.7130 oh        1 PGO     -0.613800
      6 H11        -0.4470   -1.0040    0.6610 h1        1 PGO      0.050700
      7 H12        -0.5750   -0.1710   -0.9750 h1        1 PGO      0.050700
      8 H2          1.7590   -0.9020   -0.6750 h1        1 PGO      0.039700
      9 H31         1.6250    0.7170    1.9720 hc        1 PGO      0.047700
     10 H32         3.1440    0.0360    1.2440 hc        1 PGO      0.047700
     11 H33         1.8300   -1.0790    1.8130 hc        1 PGO      0.047700
     12 HO1        -0.3310    1.7930    0.3010 ho        1 PGO      0.416000
     13 HO2         2.6230    1.3330   -0.6300 ho        1 PGO      0.407000
@<TRIPOS>BOND
     1    1    2 1   
     2    1    4 1   
     3    1    6 1   
     4    1    7 1   
     5    2    3 1   
     6    2    5 1   
     7    2    8 1   
     8    3    9 1   
     9    3   10 1   
    10    3   11 1   
    11    4   12 1   
    12    5   13 1   
@<TRIPOS>SUBSTRUCTURE
     1 PGO         1 TEMP              0 ****  ****    0 ROOT
