@<TRIPOS>MOLECULE
PGQ
   13    12     1     0     0
SMALL
bcc


@<TRIPOS>ATOM
      1 C1          0.0670    0.0600   -0.0260 c3        1 PGQ      0.089400
      2 C2          1.5860   -0.1260    0.0690 c3        1 PGQ      0.144100
      3 C3          2.0450   -0.0370    1.5110 c3        1 PGQ     -0.095100
      4 O1         -0.2620   -0.0530   -1.4020 oh        1 PGQ     -0.612800
      5 O2          2.2570    0.8970   -0.6510 oh        1 PGQ     -0.602800
      6 H11        -0.4600   -0.7360    0.5630 h1        1 PGQ      0.034200
      7 H12        -0.2260    1.0710    0.3610 h1        1 PGQ      0.034200
      8 H2          1.8600   -1.1260   -0.3720 h1        1 PGQ      0.044700
      9 H31         1.7600    0.9490    1.9510 hc        1 PGQ      0.046367
     10 H32         1.5750   -0.8550    2.1060 hc        1 PGQ      0.046367
     11 H33         3.1550   -0.1360    1.5590 hc        1 PGQ      0.046367
     12 HO1        -1.2000    0.1520   -1.4830 ho        1 PGQ      0.407000
     13 HO2         1.8940    0.8860   -1.5460 ho        1 PGQ      0.416000
@<TRIPOS>BOND
     1    1    2 1   
     2    1    4 1   
     3    1    6 1   
     4    1    7 1   
     5    2    3 1   
     6    2    5 1   
     7    2    8 1   
     8    3    9 1   
     9    3   10 1   
    10    3   11 1   
    11    4   12 1   
    12    5   13 1   
@<TRIPOS>SUBSTRUCTURE
     1 PGQ         1 TEMP              0 ****  ****    0 ROOT
