@<TRIPOS>MOLECULE
PGR
   13    12     1     0     0
SMALL
bcc


@<TRIPOS>ATOM
      1 C1          0.0650   -0.0460   -0.0340 c3        1 PGR      0.089400
      2 C2          1.5870    0.1140    0.0660 c3        1 PGR      0.144100
      3 C3          2.0360    0.0400    1.5120 c3        1 PGR     -0.095100
      4 O1         -0.2550    0.0500   -1.4140 oh        1 PGR     -0.612800
      5 O2          2.2430   -0.9330   -0.6340 oh        1 PGR     -0.602800
      6 H11        -0.2480   -1.0460    0.3670 h1        1 PGR      0.034200
      7 H12        -0.4500    0.7680    0.5390 h1        1 PGR      0.034200
      8 H2          1.8810    1.1020   -0.3900 h1        1 PGR      0.044700
      9 H31         1.7330   -0.9340    1.9650 hc        1 PGR      0.046367
     10 H32         1.5790    0.8750    2.0910 hc        1 PGR      0.046367
     11 H33         3.1480    0.1200    1.5640 hc        1 PGR      0.046367
     12 HO1        -1.1960   -0.1390   -1.4960 ho        1 PGR      0.407000
     13 HO2         1.8850   -0.9300   -1.5310 ho        1 PGR      0.416000
@<TRIPOS>BOND
     1    1    2 1   
     2    1    4 1   
     3    1    6 1   
     4    1    7 1   
     5    2    3 1   
     6    2    5 1   
     7    2    8 1   
     8    3    9 1   
     9    3   10 1   
    10    3   11 1   
    11    4   12 1   
    12    5   13 1   
@<TRIPOS>SUBSTRUCTURE
     1 PGR         1 TEMP              0 ****  ****    0 ROOT
