@<TRIPOS>MOLECULE
molecule
   13    12     1     0     0
SMALL
bcc


@<TRIPOS>ATOM
      1 C1           0.0000     0.0000     0.0000 c3         1 PGR       0.136400
      2 C2           1.5290     0.0000     0.0000 c3         1 PGR       0.149100
      3 C3           2.0400     0.0000     1.4420 c3         1 PGR      -0.113100
      4 O1          -0.4770     0.0010    -1.3460 oh         1 PGR      -0.604800
      5 O2           2.0060    -1.1640    -0.6760 oh         1 PGR      -0.595800
      6 H11         -0.3610    -0.8850     0.5100 h1         1 PGR       0.027700
      7 H12         -0.3610     0.8840     0.5110 h1         1 PGR       0.027700
      8 H2           1.8890     0.8850    -0.5100 h1         1 PGR       0.037700
      9 H31          3.1230     0.0410     1.4410 hc         1 PGR       0.043367
     10 H32          1.7130    -0.9040     1.9410 hc         1 PGR       0.043367
     11 H33          1.6470     0.8630     1.9640 hc         1 PGR       0.043367
     12 HO1         -1.4160     0.0880    -1.3470 ho         1 PGR       0.401000
     13 HO2          2.6980    -0.9220    -1.2680 ho         1 PGR       0.403000
@<TRIPOS>BOND
     1     1     2 1
     2     1     4 1
     3     1     6 1
     4     1     7 1
     5     2     3 1
     6     2     5 1
     7     2     8 1
     8     3     9 1
     9     3    10 1
    10     3    11 1
    11     4    12 1
    12     5    13 1
@<TRIPOS>SUBSTRUCTURE
     1 PGR         1 TEMP              0 ****  ****    0 ROOT
