@<TRIPOS>MOLECULE
molecule
   38    40     1     0     0
SMALL
bcc


@<TRIPOS>ATOM
      1 PA           0.0000     0.0000     0.0000 p5         1 PGS       1.148900
      2 O1A          1.4790     0.0000     0.0000 o          1 PGS      -0.907833
      3 O2A         -0.5370     0.0000     1.5180 o          1 PGS      -0.907833
      4 O3A         -0.5370    -1.3150    -0.7590 o          1 PGS      -0.907833
      5 O5'         -0.5360     1.3150    -0.7580 os         1 PGS      -0.526200
      6 C5'          0.0650     1.3180    -2.0550 c3         1 PGS       0.160400
      7 C4'         -0.4050     2.5490    -2.8320 c3         1 PGS       0.119100
      8 O4'          0.1120     3.7430    -2.2220 os         1 PGS      -0.375600
      9 C3'          0.1380     2.4980    -4.2740 c3         1 PGS       0.083100
     10 O3'         -0.9380     2.4790    -5.2130 oh         1 PGS      -0.594800
     11 C2'          0.9620     3.8000    -4.4180 c3         1 PGS       0.085100
     12 O2'          0.7520     4.3990    -5.6990 oh         1 PGS      -0.585800
     13 C1'          0.3670     4.6840    -3.2880 c3         1 PGS       0.238800
     14 N9           1.3330     5.6990    -2.8600 na         1 PGS      -0.156500
     15 C8           2.2550     5.5670    -1.8650 cc         1 PGS       0.477700
     16 N7           2.9490     6.6610    -1.7530 nd         1 PGS      -0.517100
     17 C5           2.5190     7.5630    -2.6670 cd         1 PGS      -0.009900
     18 C6           2.8820     8.8790    -3.0060 cc         1 PGS       0.324600
     19 S6           4.1800     9.7050    -2.1470 ss         1 PGS      -0.315300
     20 P            5.8340     9.1400    -3.3470 p5         1 PGS       0.763900
     21 O1P          5.9590     7.6650    -3.3520 o          1 PGS      -0.741167
     22 O2P          5.6080     9.6640    -4.8520 o          1 PGS      -0.741167
     23 O3P          7.1790     9.7910    -2.7480 o          1 PGS      -0.741167
     24 N1           2.2230     9.4840    -3.9910 na         1 PGS      -0.241900
     25 C2           1.2510     8.8730    -4.6400 cc         1 PGS       0.500400
     26 N3           0.8760     7.6430    -4.3570 nd         1 PGS      -0.690000
     27 C4           1.4800     6.9550    -3.3930 cd         1 PGS       0.359300
     28 H5'1        -0.2240     0.4210    -2.5890 h1         1 PGS       0.052200
     29 H5'2         1.1430     1.3450    -1.9530 h1         1 PGS       0.052200
     30 H4'         -1.4870     2.5870    -2.8510 h1         1 PGS       0.070700
     31 H3'          0.7770     1.6330    -4.4040 h1         1 PGS       0.063700
     32 HO3'        -0.9000     1.6840    -5.7190 ho         1 PGS       0.393000
     33 H2'          2.0130     3.6090    -4.2410 h1         1 PGS       0.071700
     34 HO2'         1.4790     4.1950    -6.2640 ho         1 PGS       0.398000
     35 H1'         -0.5580     5.1440    -3.6140 h2         1 PGS       0.090700
     36 H8           2.3890     4.6810    -1.2560 h5         1 PGS       0.127800
     37 HN1          2.4710    10.4200    -4.2440 hn         1 PGS       0.331700
     38 H2           0.7410     9.4030    -5.4350 h5         1 PGS       0.049100
@<TRIPOS>BOND
     1     1     2 1
     2     1     3 1
     3     1     4 1
     4     1     5 1
     5     5     6 1
     6     6     7 1
     7     6    28 1
     8     6    29 1
     9     7     8 1
    10     7     9 1
    11     7    30 1
    12     8    13 1
    13     9    10 1
    14     9    11 1
    15     9    31 1
    16    10    32 1
    17    11    12 1
    18    11    13 1
    19    11    33 1
    20    12    34 1
    21    13    14 1
    22    13    35 1
    23    14    15 1
    24    14    27 2
    25    15    16 2
    26    15    36 1
    27    16    17 1
    28    17    18 2
    29    17    27 1
    30    18    19 1
    31    18    24 1
    32    19    20 1
    33    20    21 1
    34    20    22 1
    35    20    23 1
    36    24    25 1
    37    24    37 1
    38    25    26 2
    39    25    38 1
    40    26    27 1
@<TRIPOS>SUBSTRUCTURE
     1 PGS         1 TEMP              0 ****  ****    0 ROOT
