@<TRIPOS>MOLECULE
PGS
   38    39     1     0     0
SMALL
bcc


@<TRIPOS>ATOM
      1 PA         -0.8600   -0.6120   -1.1650 p5        1 PGS      1.336900
      2 O1A         0.3870   -0.9070   -0.3840 o         1 PGS     -0.931833
      3 O2A        -2.1190   -1.3240   -0.7770 o         1 PGS     -0.931833
      4 O3A        -0.6320   -0.4090   -2.6510 o         1 PGS     -0.931833
      5 O5'        -1.1810    1.0430   -0.7330 os        1 PGS     -0.561200
      6 C5'        -0.1610    1.9080   -1.0220 c3        1 PGS      0.236400
      7 C4'        -0.5040    2.7360   -2.2860 c3        1 PGS      0.063100
      8 O4'        -0.0260    4.0930   -2.1160 os        1 PGS     -0.439600
      9 C3'         0.1030    2.1730   -3.5830 c3        1 PGS      0.131100
     10 O3'        -0.8990    1.6360   -4.4140 oh        1 PGS     -0.691800
     11 C2'         0.7490    3.3790   -4.3010 c3        1 PGS      0.100100
     12 O2'         0.2160    3.6780   -5.5720 oh        1 PGS     -0.611800
     13 C1'         0.4970    4.5940   -3.3440 c3        1 PGS      0.215800
     14 N9          1.6820    5.3870   -3.0590 na        1 PGS     -0.180900
     15 C8          2.7300    5.0770   -2.1660 cc        1 PGS      0.436400
     16 N7          3.6830    6.0290   -2.0990 nd        1 PGS     -0.623000
     17 C5          3.2600    7.0340   -2.9740 cd        1 PGS      0.237800
     18 C6          3.8500    8.2960   -3.3310 c         1 PGS      0.368900
     19 S6          5.2470    8.9000   -2.7790 s         1 PGS     -0.587400
     20 P           5.8770   11.2260   -3.7230 p4        1 PGS      1.540300
     21 O1P         7.1450   10.8570   -4.3820 o         1 PGS     -0.825167
     22 O2P         4.6490   11.3200   -4.5750 o         1 PGS     -0.825167
     23 O3P         5.8930   11.9800   -2.4540 o         1 PGS     -0.873967
     24 N1          3.1050    9.0340   -4.2490 n         1 PGS     -0.414400
     25 C2          1.9070    8.5820   -4.7580 cd        1 PGS      0.455800
     26 N3          1.2960    7.4340   -4.4830 nc        1 PGS     -0.599100
     27 C4          1.9880    6.6450   -3.5780 cc        1 PGS      0.067800
     28 H5'1       -0.0320    2.6430   -0.1740 h1        1 PGS      0.003200
     29 H5'2        0.8080    1.3570   -1.1800 h1        1 PGS      0.003200
     30 H4'        -1.6220    2.8060   -2.3860 h1        1 PGS      0.066700
     31 H3'         0.8710    1.3820   -3.3560 h1        1 PGS      0.104700
     32 HO3'       -1.1200    0.7530   -4.0220 ho        1 PGS      0.518000
     33 H2'         1.8440    3.2040   -4.4720 h1        1 PGS      0.067700
     34 HO2'       -0.6750    3.3050   -5.6170 ho        1 PGS      0.426000
     35 H1'        -0.2690    5.2900   -3.7990 h2        1 PGS      0.079700
     36 H8          2.7110    4.1410   -1.5900 h5        1 PGS      0.087100
     37 HN1         3.5000    9.9550   -4.5320 hn        1 PGS      0.434500
     38 H2          1.4030    9.2610   -5.4780 h5        1 PGS      0.047800
@<TRIPOS>BOND
     1    1    2 1   
     2    1    3 1   
     3    1    4 1   
     4    1    5 1   
     5    5    6 1   
     6    6    7 1   
     7    6   28 1   
     8    6   29 1   
     9    7    8 1   
    10    7    9 1   
    11    7   30 1   
    12    8   13 1   
    13    9   10 1   
    14    9   11 1   
    15    9   31 1   
    16   10   32 1   
    17   11   12 1   
    18   11   13 1   
    19   11   33 1   
    20   12   34 1   
    21   13   14 1   
    22   13   35 1   
    23   14   15 1   
    24   14   27 1   
    25   15   16 2   
    26   15   36 1   
    27   16   17 1   
    28   17   18 1   
    29   17   27 2   
    30   18   19 2   
    31   18   24 1   
    32   20   21 1   
    33   20   22 1   
    34   20   23 2   
    35   24   25 1   
    36   24   37 1   
    37   25   26 2   
    38   25   38 1   
    39   26   27 1   
@<TRIPOS>SUBSTRUCTURE
     1 PGS         1 TEMP              0 ****  ****    0 ROOT
