@<TRIPOS>MOLECULE
PGT
  129   128     1     0     0
SMALL
bcc


@<TRIPOS>ATOM
      1 C48        -0.2000    0.5760    1.1220 c3        1 PGT     -0.092100
      2 C47         1.3020    0.6840    1.0870 c3        1 PGT     -0.080400
      3 C46         1.9120    0.3940    2.4420 c3        1 PGT     -0.079400
      4 C45         3.4210    0.5040    2.4020 c3        1 PGT     -0.079400
      5 C44         4.0300    0.2130    3.7570 c3        1 PGT     -0.078400
      6 C43         5.5390    0.3230    3.7170 c3        1 PGT     -0.079400
      7 C42         6.1480    0.0320    5.0720 c3        1 PGT     -0.078400
      8 C41         7.6570    0.1410    5.0310 c3        1 PGT     -0.079400
      9 C40         8.2660   -0.1520    6.3860 c3        1 PGT     -0.078400
     10 C39         9.7750   -0.0430    6.3440 c3        1 PGT     -0.079400
     11 C38        10.3860   -0.3380    7.6980 c3        1 PGT     -0.078400
     12 C37        11.8950   -0.2300    7.6560 c3        1 PGT     -0.079400
     13 C36        12.5060   -0.5280    9.0080 c3        1 PGT     -0.078400
     14 C35        14.0150   -0.4210    8.9640 c3        1 PGT     -0.079400
     15 C34        14.6270   -0.7250   10.3150 c3        1 PGT     -0.078400
     16 C33        16.1350   -0.6130   10.2670 c3        1 PGT     -0.079400
     17 C32        16.7440   -0.9400   11.6140 c3        1 PGT     -0.129400
     18 C31        18.2240   -0.7000   11.6050 c         1 PGT      0.633100
     19 O31        18.8370    0.2410   11.0930 o         1 PGT     -0.558000
     20 O2         18.9070   -1.6680   12.2740 os        1 PGT     -0.425900
     21 C2         20.3440   -1.5720   12.3320 c3        1 PGT      0.138100
     22 C1         20.8380   -3.0110   12.5340 c3        1 PGT      0.186400
     23 O3P        22.2040   -3.0310   12.2580 os        1 PGT     -0.571200
     24 P          22.8860   -4.5350   12.3470 p5        1 PGT      1.428800
     25 O1P        21.7690   -5.5000   12.3040 o         1 PGT     -0.817000
     26 O2P        24.0950   -4.5290   11.5130 o         1 PGT     -0.817000
     27 O4P        23.3810   -4.4560   13.9290 os        1 PGT     -0.580200
     28 C4         22.5630   -5.0180   14.9020 c3        1 PGT      0.151400
     29 C5         22.3020   -3.9650   15.9890 c3        1 PGT      0.076100
     30 O5         23.5120   -3.3640   16.4350 oh        1 PGT     -0.643800
     31 C6         21.6550   -4.6070   17.2170 c3        1 PGT      0.129400
     32 O6         21.4890   -3.6760   18.2710 oh        1 PGT     -0.627800
     33 C3         20.7730   -0.6310   13.4510 c3        1 PGT      0.118400
     34 O3         20.2790   -1.1650   14.6910 os        1 PGT     -0.431900
     35 C11        20.3280   -0.3480   15.7830 c         1 PGT      0.635100
     36 O11        20.7190    0.8150   15.6410 o         1 PGT     -0.563000
     37 C12        19.8710   -1.0450   17.0260 c3        1 PGT     -0.141400
     38 C13        20.0300   -0.1680   18.2480 c3        1 PGT     -0.070400
     39 C14        19.7310   -0.9560   19.5050 c3        1 PGT     -0.085400
     40 C15        19.9640   -0.1190   20.7440 c3        1 PGT     -0.076400
     41 C16        19.6590   -0.9040   22.0020 c3        1 PGT     -0.079400
     42 C17        19.9050   -0.0720   23.2420 c3        1 PGT     -0.078400
     43 C18        19.6020   -0.8580   24.5000 c3        1 PGT     -0.079400
     44 C19        19.8510   -0.0280   25.7410 c3        1 PGT     -0.078400
     45 C20        19.5500   -0.8140   26.9990 c3        1 PGT     -0.079400
     46 C21        19.8020    0.0150   28.2400 c3        1 PGT     -0.078400
     47 C22        19.5020   -0.7720   29.4970 c3        1 PGT     -0.079400
     48 C23        19.7540    0.0570   30.7380 c3        1 PGT     -0.079400
     49 C24        19.4550   -0.7310   31.9960 c3        1 PGT     -0.079400
     50 C25        19.7070    0.0970   33.2380 c3        1 PGT     -0.080400
     51 C26        19.4110   -0.6830   34.4930 c3        1 PGT     -0.092100
     52 H481       -0.5140   -0.4530    1.4250 hc        1 PGT      0.031367
     53 H482       -0.6310    1.3020    1.8530 hc        1 PGT      0.031367
     54 H483       -0.6290    0.7930    0.1150 hc        1 PGT      0.031367
     55 H471        1.5980    1.7160    0.7580 hc        1 PGT      0.038200
     56 H472        1.7140   -0.0340    0.3310 hc        1 PGT      0.038200
     57 H461        1.5020    1.1120    3.2000 hc        1 PGT      0.039200
     58 H462        1.6190   -0.6380    2.7730 hc        1 PGT      0.039200
     59 H451        3.8310   -0.2140    1.6440 hc        1 PGT      0.039200
     60 H452        3.7140    1.5360    2.0720 hc        1 PGT      0.039200
     61 H441        3.6200    0.9310    4.5160 hc        1 PGT      0.039200
     62 H442        3.7370   -0.8180    4.0880 hc        1 PGT      0.039200
     63 H431        5.8320    1.3550    3.3880 hc        1 PGT      0.039200
     64 H432        5.9480   -0.3950    2.9590 hc        1 PGT      0.039200
     65 H421        5.7390    0.7490    5.8310 hc        1 PGT      0.039200
     66 H422        5.8550   -1.0000    5.4020 hc        1 PGT      0.039200
     67 H411        7.9500    1.1730    4.7030 hc        1 PGT      0.039200
     68 H412        8.0660   -0.5760    4.2720 hc        1 PGT      0.039200
     69 H401        7.9730   -1.1840    6.7150 hc        1 PGT      0.039200
     70 H402        7.8580    0.5660    7.1450 hc        1 PGT      0.039200
     71 H391       10.0690    0.9900    6.0170 hc        1 PGT      0.039200
     72 H392       10.1840   -0.7590    5.5840 hc        1 PGT      0.039200
     73 H381        9.9780    0.3790    8.4590 hc        1 PGT      0.038700
     74 H382       10.0920   -1.3700    8.0260 hc        1 PGT      0.038700
     75 H371       12.1890    0.8030    7.3300 hc        1 PGT      0.040200
     76 H372       12.3020   -0.9450    6.8930 hc        1 PGT      0.040200
     77 H361       12.0990    0.1870    9.7710 hc        1 PGT      0.038700
     78 H362       12.2110   -1.5610    9.3340 hc        1 PGT      0.038700
     79 H351       14.4210   -1.1350    8.1990 hc        1 PGT      0.042200
     80 H352       14.3100    0.6120    8.6420 hc        1 PGT      0.042200
     81 H341       14.2200   -0.0130   11.0810 hc        1 PGT      0.039200
     82 H342       14.3350   -1.7590   10.6370 hc        1 PGT      0.039200
     83 H331       16.5430   -1.3140    9.4910 hc        1 PGT      0.057200
     84 H332       16.4360    0.4250    9.9640 hc        1 PGT      0.057200
     85 H321       16.3030   -0.2850   12.4120 hc        1 PGT      0.074200
     86 H322       16.5370   -2.0080   11.8910 hc        1 PGT      0.074200
     87 H2         20.7400   -1.1580   11.3630 h1        1 PGT      0.090700
     88 H11        20.6650   -3.3420   13.5930 h1        1 PGT      0.044200
     89 H12        20.2980   -3.7120   11.8400 h1        1 PGT      0.044200
     90 H41        23.1080   -5.8880   15.3710 h1        1 PGT      0.045200
     91 H42        21.5920   -5.3750   14.4630 h1        1 PGT      0.045200
     92 H5         21.6390   -3.1460   15.5850 h1        1 PGT      0.055700
     93 HO5        24.0940   -3.3080   15.6620 ho        1 PGT      0.445000
     94 H61        20.6210   -4.9620   16.9690 h1        1 PGT      0.042200
     95 H62        22.2790   -5.4680   17.5770 h1        1 PGT      0.042200
     96 HO6        22.3330   -3.2170   18.3750 ho        1 PGT      0.418000
     97 H31        21.8940   -0.6050   13.5030 h1        1 PGT      0.071700
     98 H32        20.3580    0.3980   13.2920 h1        1 PGT      0.071700
     99 H121       18.7990   -1.3450   16.8900 hc        1 PGT      0.090200
    100 H122       20.4730   -1.9920   17.1440 hc        1 PGT      0.090200
    101 H131       21.0780    0.2310   18.2860 hc        1 PGT      0.049200
    102 H132       19.3460    0.7180   18.1720 hc        1 PGT      0.049200
    103 H141       20.3810   -1.8730   19.5340 hc        1 PGT      0.050200
    104 H142       18.6660   -1.3080   19.4840 hc        1 PGT      0.050200
    105 H151       21.0310    0.2280   20.7670 hc        1 PGT      0.037200
    106 H152       19.3200    0.7990   20.7070 hc        1 PGT      0.037200
    107 H161       20.2990   -1.8250   22.0330 hc        1 PGT      0.040700
    108 H162       18.5910   -1.2440   21.9820 hc        1 PGT      0.040700
    109 H171       19.2650    0.8490   23.2110 hc        1 PGT      0.037700
    110 H172       20.9730    0.2690   23.2600 hc        1 PGT      0.037700
    111 H181       18.5330   -1.1970   24.4830 hc        1 PGT      0.039200
    112 H182       20.2410   -1.7800   24.5300 hc        1 PGT      0.039200
    113 H191       20.9200    0.3120   25.7570 hc        1 PGT      0.038700
    114 H192       19.2120    0.8940   25.7120 hc        1 PGT      0.038700
    115 H201       20.1890   -1.7360   27.0270 hc        1 PGT      0.039200
    116 H202       18.4810   -1.1540   26.9830 hc        1 PGT      0.039200
    117 H211       19.1630    0.9370   28.2120 hc        1 PGT      0.038700
    118 H212       20.8710    0.3550   28.2550 hc        1 PGT      0.038700
    119 H221       18.4320   -1.1120   29.4820 hc        1 PGT      0.039200
    120 H222       20.1400   -1.6940   29.5240 hc        1 PGT      0.039200
    121 H231       19.1150    0.9790   30.7110 hc        1 PGT      0.039200
    122 H232       20.8230    0.3960   30.7530 hc        1 PGT      0.039200
    123 H241       18.3860   -1.0700   31.9820 hc        1 PGT      0.039200
    124 H242       20.0930   -1.6530   32.0230 hc        1 PGT      0.039200
    125 H251       20.7760    0.4370   33.2490 hc        1 PGT      0.038200
    126 H252       19.0690    1.0190   33.2080 hc        1 PGT      0.038200
    127 H261       19.6030   -0.0550   35.3960 hc        1 PGT      0.031367
    128 H262       20.0550   -1.5940   34.5520 hc        1 PGT      0.031367
    129 H263       18.3430   -1.0100   34.5110 hc        1 PGT      0.031367
@<TRIPOS>BOND
     1    1    2 1   
     2    1   52 1   
     3    1   53 1   
     4    1   54 1   
     5    2    3 1   
     6    2   55 1   
     7    2   56 1   
     8    3    4 1   
     9    3   57 1   
    10    3   58 1   
    11    4    5 1   
    12    4   59 1   
    13    4   60 1   
    14    5    6 1   
    15    5   61 1   
    16    5   62 1   
    17    6    7 1   
    18    6   63 1   
    19    6   64 1   
    20    7    8 1   
    21    7   65 1   
    22    7   66 1   
    23    8    9 1   
    24    8   67 1   
    25    8   68 1   
    26    9   10 1   
    27    9   69 1   
    28    9   70 1   
    29   10   11 1   
    30   10   71 1   
    31   10   72 1   
    32   11   12 1   
    33   11   73 1   
    34   11   74 1   
    35   12   13 1   
    36   12   75 1   
    37   12   76 1   
    38   13   14 1   
    39   13   77 1   
    40   13   78 1   
    41   14   15 1   
    42   14   79 1   
    43   14   80 1   
    44   15   16 1   
    45   15   81 1   
    46   15   82 1   
    47   16   17 1   
    48   16   83 1   
    49   16   84 1   
    50   17   18 1   
    51   17   85 1   
    52   17   86 1   
    53   18   19 2   
    54   18   20 1   
    55   20   21 1   
    56   21   22 1   
    57   21   33 1   
    58   21   87 1   
    59   22   23 1   
    60   22   88 1   
    61   22   89 1   
    62   23   24 1   
    63   24   25 1   
    64   24   26 1   
    65   24   27 1   
    66   27   28 1   
    67   28   29 1   
    68   28   90 1   
    69   28   91 1   
    70   29   30 1   
    71   29   31 1   
    72   29   92 1   
    73   30   93 1   
    74   31   32 1   
    75   31   94 1   
    76   31   95 1   
    77   32   96 1   
    78   33   34 1   
    79   33   97 1   
    80   33   98 1   
    81   34   35 1   
    82   35   36 2   
    83   35   37 1   
    84   37   38 1   
    85   37   99 1   
    86   37  100 1   
    87   38   39 1   
    88   38  101 1   
    89   38  102 1   
    90   39   40 1   
    91   39  103 1   
    92   39  104 1   
    93   40   41 1   
    94   40  105 1   
    95   40  106 1   
    96   41   42 1   
    97   41  107 1   
    98   41  108 1   
    99   42   43 1   
   100   42  109 1   
   101   42  110 1   
   102   43   44 1   
   103   43  111 1   
   104   43  112 1   
   105   44   45 1   
   106   44  113 1   
   107   44  114 1   
   108   45   46 1   
   109   45  115 1   
   110   45  116 1   
   111   46   47 1   
   112   46  117 1   
   113   46  118 1   
   114   47   48 1   
   115   47  119 1   
   116   47  120 1   
   117   48   49 1   
   118   48  121 1   
   119   48  122 1   
   120   49   50 1   
   121   49  123 1   
   122   49  124 1   
   123   50   51 1   
   124   50  125 1   
   125   50  126 1   
   126   51  127 1   
   127   51  128 1   
   128   51  129 1   
@<TRIPOS>SUBSTRUCTURE
     1 PGT         1 TEMP              0 ****  ****    0 ROOT
