@<TRIPOS>MOLECULE
molecule
  129   128     1     0     0
SMALL
bcc


@<TRIPOS>ATOM
      1 C48          0.0000     0.0000     0.0000 c3         1 PGT      -0.092100
      2 C47          1.5300     0.0000     0.0000 c3         1 PGT      -0.084400
      3 C46          2.0390     0.0000     1.4430 c3         1 PGT      -0.081400
      4 C45          3.5700    -0.0000     1.4440 c3         1 PGT      -0.082400
      5 C44          4.0780     0.0000     2.8870 c3         1 PGT      -0.081400
      6 C43          5.6070    -0.0010     2.8870 c3         1 PGT      -0.082400
      7 C42          6.1170     0.0000     4.3300 c3         1 PGT      -0.082400
      8 C41          7.6470    -0.0010     4.3310 c3         1 PGT      -0.082400
      9 C40          8.1570     0.0000     5.7740 c3         1 PGT      -0.082400
     10 C39          9.6870    -0.0010     5.7750 c3         1 PGT      -0.082400
     11 C38         10.1960     0.0000     7.2170 c3         1 PGT      -0.082400
     12 C37         11.7260    -0.0010     7.2180 c3         1 PGT      -0.082400
     13 C36         12.2360     0.0000     8.6610 c3         1 PGT      -0.082400
     14 C35         13.7660    -0.0010     8.6620 c3         1 PGT      -0.080400
     15 C34         14.2750     0.0000    10.1040 c3         1 PGT      -0.084400
     16 C33         15.8050    -0.0010    10.1050 c3         1 PGT      -0.072400
     17 C32         16.3140     0.0000    11.5470 c3         1 PGT      -0.124400
     18 C31         17.8210    -0.0010    11.5480 c          1 PGT       0.639100
     19 O31         18.4260    -0.0010    10.5020 o          1 PGT      -0.567000
     20 O2          18.4910     0.0000    12.7110 os         1 PGT      -0.415900
     21 C2          19.9440    -0.0000    12.7120 c3         1 PGT       0.154100
     22 C1          20.4530    -1.4440    12.7130 c3         1 PGT       0.141400
     23 O3P         20.0740    -2.0810    13.9340 os         1 PGT      -0.522200
     24 P           20.6400    -3.5870    13.8670 p5         1 PGT       1.278800
     25 O1P         20.1430    -4.2470    12.6380 o          1 PGT      -0.821500
     26 O2P         22.2490    -3.5560    13.8460 o          1 PGT      -0.821500
     27 O4P         20.1360    -4.4080    15.1580 os         1 PGT      -0.542200
     28 C4          20.5680    -5.7590    14.9820 c3         1 PGT       0.149400
     29 C5          20.1190    -6.5970    16.1810 c3         1 PGT       0.149100
     30 O5          20.7830    -6.1360    17.3600 oh         1 PGT      -0.592800
     31 C6          20.4710    -8.0650    15.9370 c3         1 PGT       0.120400
     32 O6          19.9490    -8.8640    17.0020 oh         1 PGT      -0.618800
     33 C3          20.4530     0.7210    13.9610 c3         1 PGT       0.168400
     34 O3          20.0690    -0.0280    15.1440 os         1 PGT      -0.370900
     35 C11         20.4110     0.4190    16.3620 c          1 PGT       0.640100
     36 O11         21.0380     1.4460    16.4750 o          1 PGT      -0.592000
     37 C12         20.0100    -0.3570    17.5900 c3         1 PGT      -0.124400
     38 C13         20.5200     0.3640    18.8390 c3         1 PGT      -0.071400
     39 C14         20.1140    -0.4260    20.0850 c3         1 PGT      -0.084400
     40 C15         20.6250     0.2960    21.3340 c3         1 PGT      -0.080400
     41 C16         20.2190    -0.4930    22.5810 c3         1 PGT      -0.082400
     42 C17         20.7290     0.2280    23.8300 c3         1 PGT      -0.081400
     43 C18         20.3230    -0.5610    25.0760 c3         1 PGT      -0.082400
     44 C19         20.8330     0.1610    26.3250 c3         1 PGT      -0.082400
     45 C20         20.4270    -0.6280    27.5710 c3         1 PGT      -0.082400
     46 C21         20.9360     0.0940    28.8210 c3         1 PGT      -0.082400
     47 C22         20.5300    -0.6960    30.0670 c3         1 PGT      -0.082400
     48 C23         21.0400     0.0260    31.3160 c3         1 PGT      -0.082400
     49 C24         20.6350    -0.7630    32.5620 c3         1 PGT      -0.082400
     50 C25         21.1450    -0.0410    33.8110 c3         1 PGT      -0.084400
     51 C26         20.7390    -0.8310    35.0570 c3         1 PGT      -0.092100
     52 H481        -0.3610     0.0630    -1.0190 hc         1 PGT       0.032033
     53 H482        -0.3610     0.8510     0.5640 hc         1 PGT       0.032033
     54 H483        -0.3610    -0.9140     0.4550 hc         1 PGT       0.032033
     55 H471         1.8910     0.8850    -0.5110 hc         1 PGT       0.039700
     56 H472         1.8910    -0.8850    -0.5110 hc         1 PGT       0.039700
     57 H461         1.6780    -0.8840     1.9530 hc         1 PGT       0.040700
     58 H462         1.6780     0.8850     1.9530 hc         1 PGT       0.040700
     59 H451         3.9310     0.8840     0.9330 hc         1 PGT       0.040700
     60 H452         3.9310    -0.8850     0.9340 hc         1 PGT       0.040700
     61 H441         3.7170     0.8850     3.3970 hc         1 PGT       0.040700
     62 H442         3.7160    -0.8840     3.3980 hc         1 PGT       0.040700
     63 H431         5.9680    -0.8860     2.3780 hc         1 PGT       0.041200
     64 H432         5.9690     0.8830     2.3760 hc         1 PGT       0.041200
     65 H421         5.7550    -0.8830     4.8410 hc         1 PGT       0.040200
     66 H422         5.7560     0.8850     4.8400 hc         1 PGT       0.040200
     67 H411         8.0090     0.8830     3.8200 hc         1 PGT       0.041200
     68 H412         8.0080    -0.8860     3.8210 hc         1 PGT       0.041200
     69 H401         7.7960     0.8850     6.2840 hc         1 PGT       0.040200
     70 H402         7.7950    -0.8840     6.2850 hc         1 PGT       0.040200
     71 H391        10.0490     0.8830     5.2640 hc         1 PGT       0.040700
     72 H392        10.0480    -0.8860     5.2650 hc         1 PGT       0.040700
     73 H381         9.8350     0.8850     7.7270 hc         1 PGT       0.039700
     74 H382         9.8340    -0.8840     7.7280 hc         1 PGT       0.039700
     75 H371        12.0870    -0.8860     6.7080 hc         1 PGT       0.041200
     76 H372        12.0880     0.8830     6.7070 hc         1 PGT       0.041200
     77 H361        11.8740    -0.8840     9.1720 hc         1 PGT       0.039700
     78 H362        11.8750     0.8850     9.1700 hc         1 PGT       0.039700
     79 H351        14.1260    -0.8860     8.1520 hc         1 PGT       0.043700
     80 H352        14.1280     0.8830     8.1500 hc         1 PGT       0.043700
     81 H341        13.9140     0.8850    10.6130 hc         1 PGT       0.038700
     82 H342        13.9130    -0.8840    10.6150 hc         1 PGT       0.038700
     83 H331        16.1650    -0.8860     9.5950 hc         1 PGT       0.058700
     84 H332        16.1670     0.8830     9.5930 hc         1 PGT       0.058700
     85 H321        15.9540     0.8850    12.0570 hc         1 PGT       0.069200
     86 H322        15.9520    -0.8840    12.0590 hc         1 PGT       0.069200
     87 H2          20.3060     0.5100    11.8280 h1         1 PGT       0.068700
     88 H11         21.5330    -1.4460    12.6250 h1         1 PGT       0.069200
     89 H12         20.0220    -1.9800    11.8770 h1         1 PGT       0.069200
     90 H41         21.6480    -5.7860    14.9070 h1         1 PGT       0.063200
     91 H42         20.1320    -6.1620    14.0770 h1         1 PGT       0.063200
     92 H5          19.0480    -6.4990    16.3100 h1         1 PGT       0.040700
     93 HO5         20.1430    -5.8870    18.0050 ho         1 PGT       0.395000
     94 H61         20.0390    -8.3890    14.9980 h1         1 PGT       0.030700
     95 H62         21.5480    -8.1760    15.8970 h1         1 PGT       0.030700
     96 HO6         20.0790    -9.7760    16.8030 ho         1 PGT       0.389000
     97 H31         20.0210     1.7140    14.0050 h1         1 PGT       0.047200
     98 H32         21.5330     0.7980    13.9170 h1         1 PGT       0.047200
     99 H121        20.4410    -1.3500    17.5450 hc         1 PGT       0.078700
    100 H122        18.9310    -0.4340    17.6330 hc         1 PGT       0.078700
    101 H131        20.0890     1.3560    18.8840 hc         1 PGT       0.052700
    102 H132        21.6000     0.4410    18.7960 hc         1 PGT       0.052700
    103 H141        19.0350    -0.5030    20.1280 hc         1 PGT       0.042700
    104 H142        20.5460    -1.4180    20.0410 hc         1 PGT       0.042700
    105 H151        21.7040     0.3730    21.2910 hc         1 PGT       0.040700
    106 H152        20.1930     1.2890    21.3790 hc         1 PGT       0.040700
    107 H161        19.1390    -0.5700    22.6230 hc         1 PGT       0.041200
    108 H162        20.6500    -1.4860    22.5350 hc         1 PGT       0.041200
    109 H171        20.2970     1.2210    23.8750 hc         1 PGT       0.040200
    110 H172        21.8080     0.3050    23.7870 hc         1 PGT       0.040200
    111 H181        19.2430    -0.6380    25.1190 hc         1 PGT       0.041200
    112 H182        20.7540    -1.5540    25.0310 hc         1 PGT       0.041200
    113 H191        21.9130     0.2380    26.2820 hc         1 PGT       0.039700
    114 H192        20.4020     1.1540    26.3700 hc         1 PGT       0.039700
    115 H201        19.3470    -0.7060    27.6140 hc         1 PGT       0.040700
    116 H202        20.8590    -1.6210    27.5270 hc         1 PGT       0.040700
    117 H211        20.5040     1.0860    28.8650 hc         1 PGT       0.040200
    118 H212        22.0160     0.1720    28.7780 hc         1 PGT       0.040200
    119 H221        20.9620    -1.6890    30.0220 hc         1 PGT       0.041200
    120 H222        19.4510    -0.7730    30.1100 hc         1 PGT       0.041200
    121 H231        22.1200     0.1030    31.2730 hc         1 PGT       0.040200
    122 H232        20.6090     1.0190    31.3610 hc         1 PGT       0.040200
    123 H241        19.5550    -0.8400    32.6050 hc         1 PGT       0.041200
    124 H242        21.0660    -1.7560    32.5170 hc         1 PGT       0.041200
    125 H251        20.7130     0.9510    33.8560 hc         1 PGT       0.039200
    126 H252        22.2240     0.0360    33.7680 hc         1 PGT       0.039200
    127 H261        21.1760    -1.8210    35.0160 hc         1 PGT       0.031367
    128 H262        19.6590    -0.9140    35.0970 hc         1 PGT       0.031367
    129 H263        21.0940    -0.3160    35.9420 hc         1 PGT       0.031367
@<TRIPOS>BOND
     1     1     2 1
     2     1    52 1
     3     1    53 1
     4     1    54 1
     5     2     3 1
     6     2    55 1
     7     2    56 1
     8     3     4 1
     9     3    57 1
    10     3    58 1
    11     4     5 1
    12     4    59 1
    13     4    60 1
    14     5     6 1
    15     5    61 1
    16     5    62 1
    17     6     7 1
    18     6    63 1
    19     6    64 1
    20     7     8 1
    21     7    65 1
    22     7    66 1
    23     8     9 1
    24     8    67 1
    25     8    68 1
    26     9    10 1
    27     9    69 1
    28     9    70 1
    29    10    11 1
    30    10    71 1
    31    10    72 1
    32    11    12 1
    33    11    73 1
    34    11    74 1
    35    12    13 1
    36    12    75 1
    37    12    76 1
    38    13    14 1
    39    13    77 1
    40    13    78 1
    41    14    15 1
    42    14    79 1
    43    14    80 1
    44    15    16 1
    45    15    81 1
    46    15    82 1
    47    16    17 1
    48    16    83 1
    49    16    84 1
    50    17    18 1
    51    17    85 1
    52    17    86 1
    53    18    19 2
    54    18    20 1
    55    20    21 1
    56    21    22 1
    57    21    33 1
    58    21    87 1
    59    22    23 1
    60    22    88 1
    61    22    89 1
    62    23    24 1
    63    24    25 1
    64    24    26 1
    65    24    27 1
    66    27    28 1
    67    28    29 1
    68    28    90 1
    69    28    91 1
    70    29    30 1
    71    29    31 1
    72    29    92 1
    73    30    93 1
    74    31    32 1
    75    31    94 1
    76    31    95 1
    77    32    96 1
    78    33    34 1
    79    33    97 1
    80    33    98 1
    81    34    35 1
    82    35    36 2
    83    35    37 1
    84    37    38 1
    85    37    99 1
    86    37   100 1
    87    38    39 1
    88    38   101 1
    89    38   102 1
    90    39    40 1
    91    39   103 1
    92    39   104 1
    93    40    41 1
    94    40   105 1
    95    40   106 1
    96    41    42 1
    97    41   107 1
    98    41   108 1
    99    42    43 1
   100    42   109 1
   101    42   110 1
   102    43    44 1
   103    43   111 1
   104    43   112 1
   105    44    45 1
   106    44   113 1
   107    44   114 1
   108    45    46 1
   109    45   115 1
   110    45   116 1
   111    46    47 1
   112    46   117 1
   113    46   118 1
   114    47    48 1
   115    47   119 1
   116    47   120 1
   117    48    49 1
   118    48   121 1
   119    48   122 1
   120    49    50 1
   121    49   123 1
   122    49   124 1
   123    50    51 1
   124    50   125 1
   125    50   126 1
   126    51   127 1
   127    51   128 1
   128    51   129 1
@<TRIPOS>SUBSTRUCTURE
     1 PGT         1 TEMP              0 ****  ****    0 ROOT
