@<TRIPOS>MOLECULE
PGU
   40    40     1     0     0
SMALL
bcc


@<TRIPOS>ATOM
      1 N1           0.0000     0.0000     0.0000 nb         1 PGU      -0.665000
      2 C2           1.3510     0.0000     0.0000 ca         1 PGU       0.234600
      3 C2A          2.0030    -0.0000    -1.3440 c3         1 PGU      -0.020400
      4 C3           2.1270     0.0000     1.1480 ca         1 PGU      -0.007200
      5 O3           3.4840     0.0000     1.0780 oh         1 PGU      -0.469100
      6 C4           1.4700     0.0000     2.3700 ca         1 PGU      -0.034300
      7 C4A          2.2650     0.0010     3.6440 c3         1 PGU       0.148100
      8 C5           0.0840     0.0000     2.4160 ca         1 PGU      -0.082600
      9 C6          -0.6010     0.0010     1.2120 ca         1 PGU       0.346200
     10 C5A         -0.6690     0.0010     3.7020 c3         1 PGU       0.289700
     11 O4P         -0.9080     1.3430     4.1110 os         1 PGU      -0.489200
     12 P           -1.7150     1.5910     5.4890 p5         1 PGU       0.625900
     13 O1P         -1.9270     3.0320     5.8510 o          1 PGU      -0.741833
     14 O2P         -0.8970     0.7180     6.5770 o          1 PGU      -0.741833
     15 O3P         -3.0690     0.7360     5.2680 o          1 PGU      -0.741833
     16 N            2.5530    -1.3480     4.1050 n7         1 PGU      -0.546200
     17 CA           3.3230    -1.3170     5.3470 c3         1 PGU       0.009500
     18 CB           3.5480    -2.7240     5.9270 c3         1 PGU       0.028600
     19 CG           2.2930    -3.5780     6.1360 c3         1 PGU      -0.134400
     20 CD           1.3350    -3.0150     7.1550 c          1 PGU       0.992600
     21 OE1          0.0550    -3.4100     6.9440 o          1 PGU      -0.903800
     22 OE2          1.6680    -2.2720     8.0700 o          1 PGU      -0.903800
     23 C            4.6290    -0.5950     5.0740 c          1 PGU       0.963600
     24 OXT          5.0460     0.1270     6.1490 o          1 PGU      -0.938300
     25 O            5.2590    -0.6370     4.0250 o          1 PGU      -0.938300
     26 H2A1         1.2480    -0.1250    -2.1110 hc         1 PGU      -0.018633
     27 H2A2         2.5200     0.9390    -1.4950 hc         1 PGU      -0.018633
     28 H2A3         2.7130    -0.8160    -1.4010 hc         1 PGU      -0.018633
     29 HO3          3.7860     0.8590     0.8320 ho         1 PGU       0.370000
     30 H4A1         1.7030     0.5220     4.4100 h1         1 PGU       0.055200
     31 H4A2         3.1990     0.5230     3.4750 h1         1 PGU       0.055200
     32 H6          -1.6840     0.0010     1.2430 h4         1 PGU      -0.023900
     33 H5A1        -1.6150    -0.5100     3.5660 h1         1 PGU       0.033200
     34 H5A2        -0.0880    -0.5100     4.4600 h1         1 PGU       0.033200
     35 HN           3.0720    -1.8370     3.4030 hn         1 PGU       0.221800
     36 HA           2.7650    -0.7400     6.0750 h1         1 PGU       0.108700
     37 HB1          4.2110    -3.2600     5.2580 hc         1 PGU      -0.025300
     38 HB2          4.0460    -2.6180     6.8830 hc         1 PGU      -0.025300
     39 HG1          2.5990    -4.5660     6.4590 hc         1 PGU      -0.014800
     40 HG2          1.7760    -3.6680     5.1890 hc         1 PGU      -0.014800
@<TRIPOS>BOND
     1     1     2 ar  
     2     1     9 ar  
     3     2     3 1   
     4     2     4 ar  
     5     3    26 1   
     6     3    27 1   
     7     3    28 1   
     8     4     5 1   
     9     4     6 ar  
    10     5    29 1   
    11     6     7 1   
    12     6     8 ar  
    13     7    16 1   
    14     7    30 1   
    15     7    31 1   
    16     8     9 ar  
    17     8    10 1   
    18     9    32 1   
    19    10    11 1   
    20    10    33 1   
    21    10    34 1   
    22    11    12 1   
    23    12    13 1   
    24    12    14 1   
    25    12    15 1   
    26    16    17 1   
    27    16    35 1   
    28    17    18 1   
    29    17    23 1   
    30    17    36 1   
    31    18    19 1   
    32    18    37 1   
    33    18    38 1   
    34    19    20 1   
    35    19    39 1   
    36    19    40 1   
    37    20    21 1   
    38    20    22 1   
    39    23    24 1   
    40    23    25 1   
@<TRIPOS>SUBSTRUCTURE
     1 PGU         1 TEMP              0 ****  ****    0 ROOT
