@<TRIPOS>MOLECULE
molecule
   40    40     1     0     0
SMALL
bcc


@<TRIPOS>ATOM
      1 N1           0.0000     0.0000     0.0000 nb         1 PGU      -0.726000
      2 C2           1.3510     0.0000     0.0000 ca         1 PGU       0.291600
      3 C2A          2.0030    -0.0000    -1.3440 c3         1 PGU      -0.121400
      4 C3           2.1270     0.0000     1.1480 ca         1 PGU      -0.024200
      5 O3           3.4840     0.0000     1.0780 oh         1 PGU      -0.495100
      6 C4           1.4700     0.0000     2.3700 ca         1 PGU      -0.023300
      7 C4A          2.2650     0.0010     3.6440 c3         1 PGU       0.187100
      8 C5           0.0840     0.0000     2.4160 ca         1 PGU      -0.092600
      9 C6          -0.6010     0.0010     1.2120 ca         1 PGU       0.355200
     10 C5A         -0.6690     0.0010     3.7020 c3         1 PGU       0.233700
     11 O4P         -0.9080     1.3430     4.1110 os         1 PGU      -0.589200
     12 P           -1.7150     1.5910     5.4890 p5         1 PGU       1.137900
     13 O1P         -1.9270     3.0320     5.8510 o          1 PGU      -0.899500
     14 O2P         -0.8970     0.7180     6.5770 o          1 PGU      -0.899500
     15 O3P         -3.0690     0.7360     5.2680 o          1 PGU      -0.899500
     16 N            2.5530    -1.3480     4.1050 n7         1 PGU      -0.784200
     17 CA           3.3230    -1.3170     5.3470 c3         1 PGU       0.078500
     18 CB           3.5480    -2.7240     5.9270 c3         1 PGU      -0.027400
     19 CG           2.2930    -3.5780     6.1360 c3         1 PGU      -0.171400
     20 CD           1.3350    -3.0150     7.1550 c          1 PGU       0.902600
     21 OE1          0.0550    -3.4100     6.9440 o          1 PGU      -0.854800
     22 OE2          1.6680    -2.2720     8.0700 o          1 PGU      -0.854800
     23 C            4.6290    -0.5950     5.0740 c          1 PGU       0.859600
     24 OXT          5.0460     0.1270     6.1490 o          1 PGU      -0.892300
     25 O            5.2590    -0.6370     4.0250 o          1 PGU      -0.892300
     26 H2A1         1.2480    -0.1250    -2.1110 hc         1 PGU       0.016033
     27 H2A2         2.5200     0.9390    -1.4950 hc         1 PGU       0.016033
     28 H2A3         2.7130    -0.8160    -1.4010 hc         1 PGU       0.016033
     29 HO3          3.7860     0.8590     0.8320 ho         1 PGU       0.387000
     30 H4A1         1.7030     0.5220     4.4100 h1         1 PGU       0.073700
     31 H4A2         3.1990     0.5230     3.4750 h1         1 PGU       0.073700
     32 H6          -1.6840     0.0010     1.2430 h4         1 PGU       0.014100
     33 H5A1        -1.6150    -0.5100     3.5660 h1         1 PGU       0.074200
     34 H5A2        -0.0880    -0.5100     4.4600 h1         1 PGU       0.074200
     35 HN           3.0720    -1.8370     3.4030 hn         1 PGU       0.319800
     36 HA           2.7650    -0.7400     6.0750 h1         1 PGU       0.130700
     37 HB1          4.2110    -3.2600     5.2580 hc         1 PGU      -0.001300
     38 HB2          4.0460    -2.6180     6.8830 hc         1 PGU      -0.001300
     39 HG1          2.5990    -4.5660     6.4590 hc         1 PGU       0.004200
     40 HG2          1.7760    -3.6680     5.1890 hc         1 PGU       0.004200
@<TRIPOS>BOND
     1    13    12 1
     2    17    18 1
     3    17    23 1
     4    17    16 1
     5    25    23 1
     6    18    19 1
     7    14    12 1
     8    23    24 1
     9     7    16 1
    10     7     6 1
    11     5     4 1
    12    12    11 1
    13    12    15 1
    14    11    10 1
    15     4     6 ar
    16     4     2 ar
    17     6     8 ar
    18    19    20 1
    19     2     3 1
    20     2     1 ar
    21     8    10 1
    22     8     9 ar
    23     1     9 ar
    24    20    22 1
    25    20    21 1
    26     3    26 1
    27     3    27 1
    28     3    28 1
    29     5    29 1
    30     7    30 1
    31     7    31 1
    32     9    32 1
    33    10    33 1
    34    10    34 1
    35    16    35 1
    36    17    36 1
    37    18    37 1
    38    18    38 1
    39    19    39 1
    40    19    40 1
@<TRIPOS>SUBSTRUCTURE
     1 PGU         1 TEMP              0 ****  ****    0 ROOT
