@<TRIPOS>MOLECULE
PGV
  127   122     1     0     0
SMALL
bcc


@<TRIPOS>ATOM
      1 P           0.0990   -0.3470    1.5000 p5        1 PGV      1.921000
      2 C01         6.5730    0.6430    1.4830 c2        1 PGV     -0.334000
      3 C02         3.2900   -1.1080   -0.6320 c3        1 PGV     -0.117000
      4 C03         1.9820   -1.2310    0.1150 c1        1 PGV      0.008000
      5 C04        -0.0020    1.2250    3.5420 cx        1 PGV     -0.032000
      6 C05         0.3490    2.5420    4.2140 cx        1 PGV     -0.082500
      7 C06        -1.1070    2.1510    4.0300 cx        1 PGV     -0.082500
      8 O01         4.0340   -2.3140   -0.4170 os        1 PGV     -0.260000
      9 O04         5.9450    1.3420    2.4010 os        1 PGV      0.041000
     10 O05         0.8640    3.5990    3.4680 oh        1 PGV     -0.305000
     11 O06        -1.8790    1.8230    5.1420 oh        1 PGV     -0.305000
     12 O11         1.6580   -0.1750    0.7940 os        1 PGV     -0.605000
     13 O12         0.2050    1.1670    2.1870 os        1 PGV     -0.706000
     14 O13         0.2280   -1.3080    2.6020 o         1 PGV     -0.789500
     15 O14        -0.8810   -0.2430    0.4210 o         1 PGV     -0.789500
     16 C1          3.9630   -3.2990   -1.3580 c2        1 PGV      0.312000
     17 C2          4.5110   -4.5960   -0.8410 c3        1 PGV     -0.163000
     18 C3          4.6120   -5.6310   -1.9380 c3        1 PGV     -0.156000
     19 C4          5.1000   -6.9540   -1.3880 c3        1 PGV     -0.157000
     20 C5          5.2070   -7.9940   -2.4830 c3        1 PGV     -0.157000
     21 C6          5.6880   -9.3200   -1.9350 c3        1 PGV     -0.158000
     22 C7          5.7970  -10.3600   -3.0300 c3        1 PGV     -0.158000
     23 C8          6.2760  -11.6870   -2.4810 c3        1 PGV     -0.159000
     24 C9          6.3860  -12.7240   -3.5770 c3        1 PGV     -0.154000
     25 C10         6.8670  -14.0520   -3.0160 c3        1 PGV     -0.060000
     26 C11         6.9870  -15.0610   -4.0270 c1        1 PGV     -0.159000
     27 C12         7.0900  -15.9100   -4.8640 c1        1 PGV     -0.228000
     28 C13        10.4790  -15.0960   -2.7290 c3        1 PGV     -0.217000
     29 C14        11.0890  -16.3700   -2.2050 c3        1 PGV     -0.157000
     30 C15        12.3700  -16.1010   -1.4430 c3        1 PGV     -0.157000
     31 C16        12.9810  -17.3830   -0.9220 c3        1 PGV     -0.185000
     32 C17        14.2670  -17.1200   -0.1660 c3        1 PGV     -0.256000
     33 C18        14.9650  -18.2580    0.3860 c1        1 PGV     -0.058000
     34 C19         4.7260    1.8830    2.2460 c2        1 PGV     -0.081000
     35 C20         3.9330    2.1740    3.4640 c3        1 PGV     -0.126000
     36 C21         4.6050    3.2180    4.3320 c3        1 PGV     -0.141000
     37 C22         3.7190    3.5860    5.5030 c3        1 PGV     -0.169000
     38 C23         4.3530    4.6680    6.3500 c3        1 PGV     -0.153000
     39 C24         3.4730    5.0300    7.5280 c3        1 PGV     -0.159000
     40 C25         4.0980    6.1260    8.3640 c3        1 PGV     -0.157000
     41 C26         3.2230    6.4830    9.5470 c3        1 PGV     -0.158000
     42 C27         3.8420    7.5890   10.3740 c3        1 PGV     -0.157000
     43 C28         2.9720    7.9430   11.5610 c3        1 PGV     -0.158000
     44 C29         3.5860    9.0590   12.3780 c3        1 PGV     -0.157000
     45 C30         2.7210    9.4100   13.5700 c3        1 PGV     -0.157000
     46 C31         3.3290   10.5380   14.3750 c3        1 PGV     -0.162000
     47 C32         2.4710   10.8830   15.5730 c3        1 PGV     -0.139000
     48 C33         3.0660   12.0380   16.3550 c3        1 PGV     -0.248000
     49 C34         2.3690   12.2880   17.6010 c1        1 PGV     -0.046000
     50 H011        3.2610    1.2560    1.1830 ho        1 PGV      0.247000
     51 H012        6.0440    0.1990    0.6400 h4        1 PGV      0.138000
     52 H02         7.6610    0.6970    1.5580 h4        1 PGV      0.138000
     53 H031        3.9850   -0.2990   -0.2710 h1        1 PGV      0.114000
     54 H032        3.0580   -0.9550   -1.7210 h1        1 PGV      0.114000
     55 H041       -0.9200    3.0810    1.1060 ha        1 PGV      0.001333
     56 H042        0.1910    0.2640    4.0700 h1        1 PGV      0.158000
     57 H05        -0.9590    3.7580    1.1180 ha        1 PGV      0.001333
     58 H061       -1.7390    2.7010    3.3060 h1        1 PGV      0.143000
     59 H062        0.8160    2.5600    5.2170 h1        1 PGV      0.143000
     60 H1          0.6800    3.4040    2.5340 ho        1 PGV      0.214000
     61 H06        -1.4570    1.0700    5.5760 ho        1 PGV      0.214000
     62 H21         3.1220   -3.4960    1.6640 ha        1 PGV      0.001333
     63 H22         2.6650   -2.9980    1.5950 ha        1 PGV      0.001333
     64 H31         5.5160   -4.4060   -0.3790 hc        1 PGV      0.118500
     65 H32         3.8250   -4.9460   -0.0220 hc        1 PGV      0.118500
     66 H41         5.3120   -5.2660   -2.7360 hc        1 PGV      0.094000
     67 H42         3.6080   -5.7610   -2.4210 hc        1 PGV      0.094000
     68 H51         4.3930   -7.3150   -0.5950 hc        1 PGV      0.078500
     69 H52         6.1010   -6.8150   -0.9010 hc        1 PGV      0.078500
     70 H61         5.9160   -7.6340   -3.2750 hc        1 PGV      0.081000
     71 H62         4.2060   -8.1290   -2.9720 hc        1 PGV      0.081000
     72 H71         6.6880   -9.1840   -1.4440 hc        1 PGV      0.078500
     73 H72         4.9780   -9.6800   -1.1440 hc        1 PGV      0.078500
     74 H81         4.7970  -10.4950   -3.5210 hc        1 PGV      0.080500
     75 H82         6.5080  -10.0010   -3.8200 hc        1 PGV      0.080500
     76 H91         7.2740  -11.5510   -1.9870 hc        1 PGV      0.079000
     77 H92         5.5630  -12.0460   -1.6920 hc        1 PGV      0.079000
     78 H101        7.1000  -12.3680   -4.3650 hc        1 PGV      0.087000
     79 H102        5.3880  -12.8630   -4.0690 hc        1 PGV      0.087000
     80 H11         7.8680  -13.9090   -2.5170 hc        1 PGV      0.098500
     81 H12         6.1490  -14.4050   -2.2230 hc        1 PGV      0.098500
     82 H131        9.5380  -15.3180   -3.2920 hc        1 PGV      0.075667
     83 H132        7.1790  -16.6620   -5.6050 ha        1 PGV      0.219000
     84 H141       11.1870  -14.5720   -3.4160 hc        1 PGV      0.075667
     85 H142       10.2300  -14.4020   -1.8890 hc        1 PGV      0.075667
     86 H151       10.3570  -16.8910   -1.5340 hc        1 PGV      0.078000
     87 H152       11.3030  -17.0640   -3.0610 hc        1 PGV      0.078000
     88 H161       13.1030  -15.5800   -2.1140 hc        1 PGV      0.079500
     89 H162       12.1570  -15.4100   -0.5850 hc        1 PGV      0.079500
     90 H171       13.1860  -18.0760   -1.7810 hc        1 PGV      0.080000
     91 H172       12.2490  -17.9020   -0.2490 hc        1 PGV      0.080000
     92 H181       14.0710  -16.4160    0.6980 hc        1 PGV      0.147000
     93 H182       15.0040  -16.5800   -0.8320 hc        1 PGV      0.147000
     94 H183       14.5040  -19.2460    0.2270 ha        1 PGV      0.034000
     95 H201        3.8650   -1.0750    1.9450 ha        1 PGV      0.001333
     96 H202        4.2590   -0.6380    2.2830 ha        1 PGV      0.001333
     97 H211        2.9140    2.5380    3.1500 hc        1 PGV      0.112500
     98 H212        3.7870    1.2250    4.0510 hc        1 PGV      0.112500
     99 H221        5.5900    2.8250    4.6970 hc        1 PGV      0.082000
    100 H222        4.8180    4.1320    3.7170 hc        1 PGV      0.082000
    101 H231        3.5300    2.6770    6.1330 hc        1 PGV      0.090000
    102 H232        2.7220    3.9360    5.1190 hc        1 PGV      0.090000
    103 H241        4.5320    5.5800    5.7210 hc        1 PGV      0.074000
    104 H242        5.3540    4.3210    6.7200 hc        1 PGV      0.074000
    105 H251        2.4690    5.3660    7.1560 hc        1 PGV      0.081500
    106 H252        3.3040    4.1220    8.1630 hc        1 PGV      0.081500
    107 H261        5.1060    5.7930    8.7290 hc        1 PGV      0.075500
    108 H262        4.2610    7.0360    7.7290 hc        1 PGV      0.075500
    109 H271        2.2120    6.8060    9.1820 hc        1 PGV      0.080000
    110 H272        3.0680    5.5750   10.1880 hc        1 PGV      0.080000
    111 H281        4.8550    7.2680   10.7330 hc        1 PGV      0.076500
    112 H282        3.9910    8.4980    9.7330 hc        1 PGV      0.076500
    113 H291        1.9550    8.2530   11.2030 hc        1 PGV      0.080000
    114 H292        2.8320    7.0370   12.2080 hc        1 PGV      0.080000
    115 H301        4.6050    8.7510   12.7310 hc        1 PGV      0.077000
    116 H302        3.7210    9.9660   11.7310 hc        1 PGV      0.077000
    117 H311        1.6980    9.7080   13.2180 hc        1 PGV      0.081500
    118 H312        2.5960    8.5070   14.2230 hc        1 PGV      0.081500
    119 H321        3.4480   11.4430   13.7220 hc        1 PGV      0.075500
    120 H322        4.3560   10.2430   14.7190 hc        1 PGV      0.075500
    121 H331        2.3700    9.9900   16.2440 hc        1 PGV      0.093000
    122 H332        1.4390   11.1590   15.2320 hc        1 PGV      0.093000
    123 H341        4.1220   11.7680   16.6720 hc        1 PGV      0.109500
    124 H342        3.1560   12.9380   15.6840 hc        1 PGV      0.109500
    125 H343        2.4880   13.3090   18.0040 ha        1 PGV      0.027000
    126 O03         4.1660    1.6020    1.0500 oh        1 PGV     -0.275000
    127 O02         3.5170   -3.0470   -2.4790 o         1 PGV     -0.363000
@<TRIPOS>BOND
     1    1   12 1   
     2    1   13 1   
     3    1   14 1   
     4    1   15 1   
     5    2    9 1   
     6    2   51 1   
     7    2   52 1   
     8    3    4 1   
     9    3    8 1   
    10    3   53 1   
    11    3   54 1   
    12    4   12 1   
    13    5    6 1   
    14    5    7 1   
    15    5   13 1   
    16    5   56 1   
    17    6    7 1   
    18    6   10 1   
    19    6   59 1   
    20    7   11 1   
    21    7   58 1   
    22    8   16 1   
    23    9   34 1   
    24   10   60 1   
    25   11   61 1   
    26   16   17 1   
    27   16  127 1   
    28   17   18 1   
    29   17   64 1   
    30   17   65 1   
    31   18   19 1   
    32   18   66 1   
    33   18   67 1   
    34   19   20 1   
    35   19   68 1   
    36   19   69 1   
    37   20   21 1   
    38   20   70 1   
    39   20   71 1   
    40   21   22 1   
    41   21   72 1   
    42   21   73 1   
    43   22   23 1   
    44   22   74 1   
    45   22   75 1   
    46   23   24 1   
    47   23   76 1   
    48   23   77 1   
    49   24   25 1   
    50   24   78 1   
    51   24   79 1   
    52   25   26 1   
    53   25   80 1   
    54   25   81 1   
    55   26   27 1   
    56   27   83 1   
    57   28   29 1   
    58   28   82 1   
    59   28   84 1   
    60   28   85 1   
    61   29   30 1   
    62   29   86 1   
    63   29   87 1   
    64   30   31 1   
    65   30   88 1   
    66   30   89 1   
    67   31   32 1   
    68   31   90 1   
    69   31   91 1   
    70   32   33 1   
    71   32   92 1   
    72   32   93 1   
    73   33   94 1   
    74   34   35 1   
    75   34  126 1   
    76   35   36 1   
    77   35   97 1   
    78   35   98 1   
    79   36   37 1   
    80   36   99 1   
    81   36  100 1   
    82   37   38 1   
    83   37  101 1   
    84   37  102 1   
    85   38   39 1   
    86   38  103 1   
    87   38  104 1   
    88   39   40 1   
    89   39  105 1   
    90   39  106 1   
    91   40   41 1   
    92   40  107 1   
    93   40  108 1   
    94   41   42 1   
    95   41  109 1   
    96   41  110 1   
    97   42   43 1   
    98   42  111 1   
    99   42  112 1   
   100   43   44 1   
   101   43  113 1   
   102   43  114 1   
   103   44   45 1   
   104   44  115 1   
   105   44  116 1   
   106   45   46 1   
   107   45  117 1   
   108   45  118 1   
   109   46   47 1   
   110   46  119 1   
   111   46  120 1   
   112   47   48 1   
   113   47  121 1   
   114   47  122 1   
   115   48   49 1   
   116   48  123 1   
   117   48  124 1   
   118   49  125 1   
   119   50  126 1   
   120   55   57 1   
   121   62   63 1   
   122   95   96 1   
@<TRIPOS>SUBSTRUCTURE
     1 PGV         1 TEMP              0 ****  ****    0 ROOT
