@<TRIPOS>MOLECULE
molecule
  127   126     1     0     0
SMALL
bcc


@<TRIPOS>ATOM
      1 P            0.0000     0.0000     0.0000 p5         1 PGV       1.282800
      2 C01          4.0930     1.2500    -0.7450 c3         1 PGV       0.167400
      3 C02          3.5490     0.0020    -1.4410 c3         1 PGV       0.155100
      4 C03          2.0210     0.0010    -1.3690 c3         1 PGV       0.139400
      5 C04         -1.9640    -0.0010     1.4530 c3         1 PGV       0.163400
      6 C05         -2.5380    -0.0020     2.8700 c3         1 PGV       0.151100
      7 C06         -4.0670    -0.0020     2.8010 c3         1 PGV       0.102400
      8 O01          4.0660    -1.1830    -0.7810 os         1 PGV      -0.411900
      9 O04          4.7120     3.1640     1.0280 o          1 PGV      -0.590000
     10 O05         -2.0930     1.1660     3.5660 oh         1 PGV      -0.586800
     11 O06         -4.6040    -0.0020     4.1250 oh         1 PGV      -0.623800
     12 O11          1.6090     0.0000     0.0000 os         1 PGV      -0.523200
     13 O12         -0.5350     0.0000     1.5190 os         1 PGV      -0.535200
     14 O13         -0.4940    -1.2080    -0.6960 o          1 PGV      -0.824000
     15 O14         -0.5380     1.3140    -0.7570 o          1 PGV      -0.824000
     16 C1           4.2570    -2.3130    -1.4820 c          1 PGV       0.640100
     17 C2           4.7930    -3.5430    -0.7950 c3         1 PGV      -0.124400
     18 C3           4.9150    -4.6810    -1.8110 c3         1 PGV      -0.072400
     19 C4           5.4590    -5.9290    -1.1150 c3         1 PGV      -0.084400
     20 C5           5.5810    -7.0680    -2.1310 c3         1 PGV      -0.080400
     21 C6           6.1260    -8.3160    -1.4350 c3         1 PGV      -0.082400
     22 C7           6.2470    -9.4540    -2.4510 c3         1 PGV      -0.080400
     23 C8           6.7930   -10.7020    -1.7560 c3         1 PGV      -0.091400
     24 C9           6.9140   -11.8400    -2.7720 c3         1 PGV      -0.097400
     25 C10          7.4590   -13.0890    -2.0760 c3         1 PGV       0.065800
     26 C11          7.5800   -14.2090    -3.0760 c2         1 PGV      -0.228200
     27 C12          8.7140   -14.8480    -3.2100 c2         1 PGV      -0.242200
     28 C13          9.8520   -14.5730    -2.2600 c3         1 PGV       0.070800
     29 C14         10.3430   -15.8900    -1.6570 c3         1 PGV      -0.097400
     30 C15         11.4970   -15.6100    -0.6920 c3         1 PGV      -0.091400
     31 C16         11.9880   -16.9270    -0.0890 c3         1 PGV      -0.079400
     32 C17         13.1420   -16.6470     0.8760 c3         1 PGV      -0.084400
     33 C18         13.6340   -17.9640     1.4790 c3         1 PGV      -0.092100
     34 C19          4.0370     2.2570     1.4560 c          1 PGV       0.640100
     35 C20          3.6030     2.2570     2.8990 c3         1 PGV      -0.124400
     36 C21          4.1460     3.5060     3.5950 c3         1 PGV      -0.071400
     37 C22          3.7050     3.5060     5.0590 c3         1 PGV      -0.084400
     38 C23          4.2480     4.7550     5.7550 c3         1 PGV      -0.080400
     39 C24          3.8070     4.7550     7.2210 c3         1 PGV      -0.082400
     40 C25          4.3500     6.0050     7.9170 c3         1 PGV      -0.082400
     41 C26          3.9090     6.0040     9.3820 c3         1 PGV      -0.082400
     42 C27          4.4520     7.2530    10.0780 c3         1 PGV      -0.082400
     43 C28          4.0120     7.2540    11.5430 c3         1 PGV      -0.082400
     44 C29          4.5550     8.5020    12.2400 c3         1 PGV      -0.082400
     45 C30          4.1140     8.5020    13.7040 c3         1 PGV      -0.082400
     46 C31          4.6580     9.7520    14.4010 c3         1 PGV      -0.082400
     47 C32          4.2170     9.7520    15.8660 c3         1 PGV      -0.082400
     48 C33          4.7600    11.0010    16.5630 c3         1 PGV      -0.084400
     49 C34          4.3190    11.0000    18.0280 c3         1 PGV      -0.092100
     50 H011         5.1750     1.2510    -0.7970 h1         1 PGV       0.047700
     51 H012         3.7070     2.1350    -1.2380 h1         1 PGV       0.047700
     52 H02          3.8620     0.0020    -2.4780 h1         1 PGV       0.067700
     53 H031         1.6360     0.8860    -1.8610 h1         1 PGV       0.069200
     54 H032         1.6370    -0.8830    -1.8620 h1         1 PGV       0.069200
     55 H041        -2.3010    -0.8850     0.9270 h1         1 PGV       0.063200
     56 H042        -2.3010     0.8840     0.9270 h1         1 PGV       0.063200
     57 H05         -2.2000    -0.8860     3.3970 h1         1 PGV       0.038700
     58 H061        -4.4050     0.8820     2.2750 h1         1 PGV       0.030200
     59 H062        -4.4040    -0.8870     2.2750 h1         1 PGV       0.030200
     60 H1          -2.1230     1.0090     4.4950 ho         1 PGV       0.391000
     61 H06         -5.5380    -0.1260     4.0850 ho         1 PGV       0.392000
     62 H21          4.1170    -3.8370    -0.0020 hc         1 PGV       0.069700
     63 H22          5.7680    -3.3260    -0.3770 hc         1 PGV       0.069700
     64 H31          3.9390    -4.8980    -2.2300 hc         1 PGV       0.058700
     65 H32          5.5910    -4.3860    -2.6050 hc         1 PGV       0.058700
     66 H41          6.4350    -5.7130    -0.6970 hc         1 PGV       0.038700
     67 H42          4.7830    -6.2240    -0.3220 hc         1 PGV       0.038700
     68 H51          4.6060    -7.2840    -2.5500 hc         1 PGV       0.044200
     69 H52          6.2570    -6.7730    -2.9250 hc         1 PGV       0.044200
     70 H61          7.1010    -8.0990    -1.0170 hc         1 PGV       0.039200
     71 H62          5.4500    -8.6110    -0.6420 hc         1 PGV       0.039200
     72 H71          5.2720    -9.6710    -2.8690 hc         1 PGV       0.043700
     73 H72          6.9230    -9.1590    -3.2450 hc         1 PGV       0.043700
     74 H81          6.1170   -10.9980    -0.9620 hc         1 PGV       0.037700
     75 H82          7.7680   -10.4860    -1.3380 hc         1 PGV       0.037700
     76 H91          5.9390   -12.0560    -3.1900 hc         1 PGV       0.055700
     77 H92          7.5900   -11.5450    -3.5650 hc         1 PGV       0.055700
     78 H101         6.7830   -13.3840    -1.2830 hc         1 PGV       0.043700
     79 H102         8.4340   -12.8720    -1.6570 hc         1 PGV       0.043700
     80 H11          7.3690   -14.4080    -2.0330 ha         1 PGV       0.071000
     81 H12          9.3860   -14.0130    -3.3650 ha         1 PGV       0.069000
     82 H131         9.5100   -13.9180    -1.4680 hc         1 PGV       0.043700
     83 H132        10.6630   -14.0970    -2.7970 hc         1 PGV       0.043700
     84 H141        10.6860   -16.5440    -2.4490 hc         1 PGV       0.054200
     85 H142         9.5310   -16.3660    -1.1210 hc         1 PGV       0.054200
     86 H151        11.1540   -14.9560     0.1000 hc         1 PGV       0.039200
     87 H152        12.3080   -15.1340    -1.2280 hc         1 PGV       0.039200
     88 H161        11.1770   -17.4040     0.4480 hc         1 PGV       0.042700
     89 H162        12.3300   -17.5820    -0.8810 hc         1 PGV       0.042700
     90 H171        12.8000   -15.9930     1.6680 hc         1 PGV       0.039700
     91 H172        13.9540   -16.1710     0.3390 hc         1 PGV       0.039700
     92 H181        14.4520   -17.7660     2.1610 hc         1 PGV       0.032367
     93 H182        12.8220   -18.4400     2.0170 hc         1 PGV       0.032367
     94 H183        13.9750   -18.6200     0.6870 hc         1 PGV       0.032367
     95 H201         3.9890     1.3720     3.3910 hc         1 PGV       0.079200
     96 H202         2.5210     2.2560     2.9510 hc         1 PGV       0.079200
     97 H211         5.2280     3.5070     3.5440 hc         1 PGV       0.052700
     98 H212         3.7610     4.3910     3.1020 hc         1 PGV       0.052700
     99 H221         4.0900     2.6210     5.5520 hc         1 PGV       0.043200
    100 H222         2.6230     3.5050     5.1100 hc         1 PGV       0.043200
    101 H231         3.8620     5.6390     5.2620 hc         1 PGV       0.040700
    102 H232         5.3300     4.7560     5.7040 hc         1 PGV       0.040700
    103 H241         2.7250     4.7550     7.2720 hc         1 PGV       0.041200
    104 H242         4.1920     3.8710     7.7140 hc         1 PGV       0.041200
    105 H251         5.4320     6.0050     7.8650 hc         1 PGV       0.040200
    106 H252         3.9640     6.8890     7.4240 hc         1 PGV       0.040200
    107 H261         4.2950     5.1190     9.8750 hc         1 PGV       0.041200
    108 H262         2.8270     6.0030     9.4340 hc         1 PGV       0.041200
    109 H271         5.5340     7.2540    10.0260 hc         1 PGV       0.039700
    110 H272         4.0670     8.1370     9.5850 hc         1 PGV       0.039700
    111 H281         2.9300     7.2530    11.5950 hc         1 PGV       0.040700
    112 H282         4.3970     6.3690    12.0360 hc         1 PGV       0.040700
    113 H291         5.6370     8.5030    12.1890 hc         1 PGV       0.040200
    114 H292         4.1700     9.3870    11.7480 hc         1 PGV       0.040200
    115 H301         4.4990     7.6180    14.1970 hc         1 PGV       0.041200
    116 H302         3.0320     8.5020    13.7550 hc         1 PGV       0.041200
    117 H311         5.7400     9.7520    14.3500 hc         1 PGV       0.040200
    118 H312         4.2730    10.6360    13.9080 hc         1 PGV       0.040200
    119 H321         3.1350     9.7510    15.9180 hc         1 PGV       0.040700
    120 H322         4.6020     8.8670    16.3590 hc         1 PGV       0.040700
    121 H331         5.8420    11.0020    16.5110 hc         1 PGV       0.039200
    122 H332         4.3740    11.8850    16.0700 hc         1 PGV       0.039200
    123 H341         4.7030    11.8850    18.5210 hc         1 PGV       0.031367
    124 H342         4.7050    10.1160    18.5200 hc         1 PGV       0.031367
    125 H343         3.2370    10.9990    18.0790 hc         1 PGV       0.031367
    126 O03          3.6750     1.2500     0.6450 os         1 PGV      -0.375900
    127 O02          3.9990    -2.3430    -2.6610 o          1 PGV      -0.567000
@<TRIPOS>BOND
     1     1    12 1
     2     1    13 1
     3     1    14 1
     4     1    15 1
     5     2     3 1
     6     2   126 1
     7     2    50 1
     8     2    51 1
     9     3     4 1
    10     3     8 1
    11     3    52 1
    12     4    12 1
    13     4    53 1
    14     4    54 1
    15     5     6 1
    16     5    13 1
    17     5    55 1
    18     5    56 1
    19     6     7 1
    20     6    10 1
    21     6    57 1
    22     7    11 1
    23     7    58 1
    24     7    59 1
    25     8    16 1
    26   127    16 2
    27   126    34 1
    28     9    34 2
    29    10    60 1
    30    11    61 1
    31    16    17 1
    32    17    18 1
    33    17    62 1
    34    17    63 1
    35    18    19 1
    36    18    64 1
    37    18    65 1
    38    19    20 1
    39    19    66 1
    40    19    67 1
    41    20    21 1
    42    20    68 1
    43    20    69 1
    44    21    22 1
    45    21    70 1
    46    21    71 1
    47    22    23 1
    48    22    72 1
    49    22    73 1
    50    23    24 1
    51    23    74 1
    52    23    75 1
    53    24    25 1
    54    24    76 1
    55    24    77 1
    56    25    26 1
    57    25    78 1
    58    25    79 1
    59    26    27 2
    60    26    80 1
    61    27    28 1
    62    27    81 1
    63    28    29 1
    64    28    82 1
    65    28    83 1
    66    29    30 1
    67    29    84 1
    68    29    85 1
    69    30    31 1
    70    30    86 1
    71    30    87 1
    72    31    32 1
    73    31    88 1
    74    31    89 1
    75    32    33 1
    76    32    90 1
    77    32    91 1
    78    33    92 1
    79    33    93 1
    80    33    94 1
    81    34    35 1
    82    35    36 1
    83    35    95 1
    84    35    96 1
    85    36    37 1
    86    36    97 1
    87    36    98 1
    88    37    38 1
    89    37    99 1
    90    37   100 1
    91    38    39 1
    92    38   101 1
    93    38   102 1
    94    39    40 1
    95    39   103 1
    96    39   104 1
    97    40    41 1
    98    40   105 1
    99    40   106 1
   100    41    42 1
   101    41   107 1
   102    41   108 1
   103    42    43 1
   104    42   109 1
   105    42   110 1
   106    43    44 1
   107    43   111 1
   108    43   112 1
   109    44    45 1
   110    44   113 1
   111    44   114 1
   112    45    46 1
   113    45   115 1
   114    45   116 1
   115    46    47 1
   116    46   117 1
   117    46   118 1
   118    47    48 1
   119    47   119 1
   120    47   120 1
   121    48    49 1
   122    48   121 1
   123    48   122 1
   124    49   123 1
   125    49   124 1
   126    49   125 1
@<TRIPOS>SUBSTRUCTURE
     1 PGV         1 TEMP              0 ****  ****    0 ROOT
