@<TRIPOS>MOLECULE
molecule
  127   126     1     0     0
SMALL
bcc


@<TRIPOS>ATOM
      1 CAD          0.0000     0.0000     0.0000 c3         1 PGW       0.096400
      2 OAE         -0.4760     0.1170    -1.3430 oh         1 PGW      -0.608800
      3 OAF          2.0060    -1.1670    -0.6730 oh         1 PGW      -0.590800
      4 P            4.3380     0.1500     2.7950 p5         1 PGW       1.366800
      5 C01          8.3690    -1.0040     1.6630 c3         1 PGW       0.161400
      6 O01          8.4860     1.3970     2.0570 os         1 PGW      -0.398900
      7 C02          8.3040     0.1110     2.7080 c3         1 PGW       0.138100
      8 C2           9.2820     3.7310     2.1710 c3         1 PGW      -0.127400
      9 O02          9.3990     2.1570     3.9200 o          1 PGW      -0.571000
     10 C03          6.9400     0.0810     3.4020 c3         1 PGW       0.215400
     11 C3           9.9470     4.6480     3.1990 c3         1 PGW      -0.072400
     12 C04          2.0390     0.0000     1.4420 c3         1 PGW       0.210400
     13 C4          10.1730     6.0290     2.5800 c3         1 PGW      -0.084400
     14 O04          7.9910    -2.6580    -0.3310 o          1 PGW      -0.597000
     15 C05          1.5290     0.0000     0.0000 c3         1 PGW       0.141100
     16 C5          10.8370     6.9460     3.6090 c3         1 PGW      -0.078400
     17 C06         14.2490    12.1110     2.7000 c3         1 PGW       0.066800
     18 C6          11.0630     8.3270     2.9900 c3         1 PGW      -0.091400
     19 C07         14.5110    13.5370     2.2090 c3         1 PGW      -0.096400
     20 C7          11.7280     9.2440     4.0180 c3         1 PGW      -0.097400
     21 C08         15.0500    13.4910     0.7770 c3         1 PGW      -0.090400
     22 C8          11.9540    10.6250     3.4000 c3         1 PGW       0.066800
     23 C09         15.3110    14.9160     0.2860 c3         1 PGW      -0.080400
     24 C9          12.6080    11.5280     4.4120 c2         1 PGW      -0.225200
     25 C10         13.7180    12.1560     4.1100 c2         1 PGW      -0.244200
     26 C11         15.8510    14.8710    -1.1460 c3         1 PGW      -0.082400
     27 O11          5.9050     0.1570     2.4200 os         1 PGW      -0.582200
     28 C12         16.1120    16.2950    -1.6380 c3         1 PGW      -0.081400
     29 O12          3.4630     0.1180     1.4440 os         1 PGW      -0.590200
     30 C13         16.6500    16.2510    -3.0680 c3         1 PGW      -0.084400
     31 O13          3.9820     1.4780     3.6340 o          1 PGW      -0.828500
     32 C14         16.9120    17.6760    -3.5610 c3         1 PGW      -0.092100
     33 O14          4.0320    -1.0460     3.6100 o          1 PGW      -0.828500
     34 C15          1.9470    -5.9990    -9.2820 c3         1 PGW      -0.082400
     35 C16          2.0800    -7.1410   -10.2910 c3         1 PGW      -0.082400
     36 C17          0.9280    -7.0700   -11.2950 c3         1 PGW      -0.082400
     37 C18          1.0600    -8.2120   -12.3050 c3         1 PGW      -0.082400
     38 C19          7.1610    -1.7830    -0.2380 c          1 PGW       0.632100
     39 C20          6.0270    -1.7140    -1.2270 c3         1 PGW      -0.127400
     40 C21          6.1590    -2.8550    -2.2360 c3         1 PGW      -0.070400
     41 C22          5.0070    -2.7850    -3.2410 c3         1 PGW      -0.084400
     42 C23          5.1390    -3.9270    -4.2500 c3         1 PGW      -0.080400
     43 C24          3.9870    -3.8560    -5.2550 c3         1 PGW      -0.082400
     44 C25          4.1200    -4.9990    -6.2630 c3         1 PGW      -0.082400
     45 C26          2.9680    -4.9280    -7.2680 c3         1 PGW      -0.082400
     46 C27          3.0990    -6.0700    -8.2770 c3         1 PGW      -0.082400
     47 C28         -0.0920    -8.1420   -13.3100 c3         1 PGW      -0.082400
     48 C29         -1.1110    -9.2130   -15.3230 c3         1 PGW      -0.092100
     49 C30          0.0410    -9.2840   -14.3190 c3         1 PGW      -0.084400
     50 HAD         -0.3610     0.8370     0.5850 h1         1 PGW       0.025700
     51 HADA        -0.3610    -0.9250     0.4320 h1         1 PGW       0.025700
     52 HOAE        -1.4050     0.2780    -1.3340 ho         1 PGW       0.391000
     53 HOAF         1.3730    -1.8610    -0.5860 ho         1 PGW       0.389000
     54 H01          9.2980    -0.9270     1.1110 h1         1 PGW       0.047200
     55 H01A         8.3210    -1.9660     2.1580 h1         1 PGW       0.047200
     56 H02          9.0860    -0.0360     3.4420 h1         1 PGW       0.070700
     57 H2           8.3300     4.1530     1.8730 hc         1 PGW       0.071200
     58 H2A          9.9230     3.6380     1.3030 hc         1 PGW       0.071200
     59 H03          6.8400    -0.8420     3.9610 h1         1 PGW       0.044700
     60 H03A         6.8600     0.9230     4.0780 h1         1 PGW       0.044700
     61 H3           9.3050     4.7420     4.0670 hc         1 PGW       0.058200
     62 H3A         10.8990     4.2260     3.4980 hc         1 PGW       0.058200
     63 H04          1.7530    -0.9260     1.9260 h1         1 PGW       0.032200
     64 H04A         1.6070     0.8370     1.9780 h1         1 PGW       0.032200
     65 H4          10.8140     5.9350     1.7120 hc         1 PGW       0.039200
     66 H4A          9.2210     6.4510     2.2820 hc         1 PGW       0.039200
     67 H05          1.8900     0.8840    -0.5110 h1         1 PGW       0.087700
     68 H5          10.1960     7.0400     4.4770 hc         1 PGW       0.045700
     69 H5A         11.7890     6.5240     3.9070 hc         1 PGW       0.045700
     70 H06         15.1730    11.5470     2.6800 hc         1 PGW       0.043200
     71 H06A        13.5200    11.6350     2.0550 hc         1 PGW       0.043200
     72 H6          10.1110     8.7500     2.6910 hc         1 PGW       0.037700
     73 H6A         11.7050     8.2340     2.1220 hc         1 PGW       0.037700
     74 H07         13.5860    14.1010     2.2290 hc         1 PGW       0.053700
     75 H07A        15.2390    14.0130     2.8540 hc         1 PGW       0.053700
     76 H7          12.6800     8.8220     4.3160 hc         1 PGW       0.055700
     77 H7A         11.0870     9.3380     4.8860 hc         1 PGW       0.055700
     78 H08         14.3220    13.0150     0.1320 hc         1 PGW       0.039200
     79 H08A        15.9740    12.9270     0.7570 hc         1 PGW       0.039200
     80 H8          11.0010    11.0480     3.1020 hc         1 PGW       0.044200
     81 H8A         12.5950    10.5320     2.5320 hc         1 PGW       0.044200
     82 H09         14.3870    15.4800     0.3060 hc         1 PGW       0.042700
     83 H09A        16.0390    15.3930     0.9310 hc         1 PGW       0.042700
     84 H11         16.7750    14.3070    -1.1660 hc         1 PGW       0.041200
     85 H11A        15.1230    14.3940    -1.7910 hc         1 PGW       0.041200
     86 H12         16.8400    16.7720    -0.9930 hc         1 PGW       0.041200
     87 H12A        15.1870    16.8600    -1.6170 hc         1 PGW       0.041200
     88 H13         17.5740    15.6860    -3.0890 hc         1 PGW       0.040200
     89 H13A        15.9220    15.7740    -3.7130 hc         1 PGW       0.040200
     90 H14         15.9870    18.2400    -3.5400 hc         1 PGW       0.031700
     91 H14A        17.6400    18.1520    -2.9160 hc         1 PGW       0.031700
     92 H14B        17.2930    17.6430    -4.5740 hc         1 PGW       0.031700
     93 H15          1.0040    -6.0890    -8.7560 hc         1 PGW       0.041200
     94 H15A         1.9810    -5.0510    -9.8030 hc         1 PGW       0.041200
     95 H16          2.0460    -8.0900    -9.7690 hc         1 PGW       0.040200
     96 H16A         3.0230    -7.0510   -10.8160 hc         1 PGW       0.040200
     97 H17         -0.0150    -7.1600   -10.7690 hc         1 PGW       0.040700
     98 H17A         0.9610    -6.1210   -11.8160 hc         1 PGW       0.040700
     99 H18          2.0030    -8.1220   -12.8310 hc         1 PGW       0.040200
    100 H18A         1.0260    -9.1610   -11.7840 hc         1 PGW       0.040200
    101 H20          6.0600    -0.7650    -1.7490 hc         1 PGW       0.087700
    102 H20A         5.0830    -1.8040    -0.7020 hc         1 PGW       0.087700
    103 H21          7.1020    -2.7660    -2.7620 hc         1 PGW       0.048700
    104 H21A         6.1250    -3.8040    -1.7150 hc         1 PGW       0.048700
    105 H22          5.0410    -1.8360    -3.7630 hc         1 PGW       0.047700
    106 H22A         4.0640    -2.8740    -2.7150 hc         1 PGW       0.047700
    107 H23          6.0820    -3.8380    -4.7760 hc         1 PGW       0.038200
    108 H23A         5.1050    -4.8760    -3.7280 hc         1 PGW       0.038200
    109 H24          4.0200    -2.9080    -5.7760 hc         1 PGW       0.042700
    110 H24A         3.0430    -3.9460    -4.7290 hc         1 PGW       0.042700
    111 H25          5.0630    -4.9090    -6.7890 hc         1 PGW       0.038700
    112 H25A         4.0860    -5.9470    -5.7420 hc         1 PGW       0.038700
    113 H26          3.0020    -3.9790    -7.7900 hc         1 PGW       0.041200
    114 H26A         2.0250    -5.0170    -6.7420 hc         1 PGW       0.041200
    115 H27          4.0420    -5.9810    -8.8030 hc         1 PGW       0.039200
    116 H27A         3.0650    -7.0190    -7.7550 hc         1 PGW       0.039200
    117 H28         -0.0590    -7.1930   -13.8310 hc         1 PGW       0.040700
    118 H28A        -1.0350    -8.2320   -12.7840 hc         1 PGW       0.040700
    119 H29         -1.0770    -8.2640   -15.8450 hc         1 PGW       0.031700
    120 H29A        -2.0540    -9.3030   -14.7980 hc         1 PGW       0.031700
    121 H29B        -1.0170   -10.0220   -16.0370 hc         1 PGW       0.031700
    122 H30          0.9840    -9.1940   -14.8440 hc         1 PGW       0.039700
    123 H30A         0.0070   -10.2330   -13.7970 hc         1 PGW       0.039700
    124 H9          11.9460    11.9280     3.6540 ha         1 PGW       0.069000
    125 H10         14.3260    11.3270     3.7690 ha         1 PGW       0.072000
    126 C1           9.0610     2.3710     2.7800 c          1 PGW       0.636100
    127 O03          7.2500    -0.8750     0.7460 os         1 PGW      -0.357900
@<TRIPOS>BOND
     1     1    15 1
     2     1    50 1
     3     1    51 1
     4     2     1 1
     5     2    52 1
     6     3    15 1
     7     3    53 1
     8     4    31 1
     9     4    27 1
    10     5   127 1
    11     5     7 1
    12     5    54 1
    13     5    55 1
    14   126     8 1
    15     6   126 1
    16     7     6 1
    17     7    56 1
    18     8    11 1
    19     8    57 1
    20     8    58 1
    21     9   126 2
    22    10     7 1
    23    10    59 1
    24    10    60 1
    25    11    13 1
    26    11    61 1
    27    11    62 1
    28    12    15 1
    29    12    29 1
    30    12    63 1
    31    12    64 1
    32    13    16 1
    33    13    65 1
    34    13    66 1
    35    14    38 2
    36    15    67 1
    37    16    18 1
    38    16    68 1
    39    16    69 1
    40    17    19 1
    41    17    70 1
    42    17    71 1
    43    18    20 1
    44    18    72 1
    45    18    73 1
    46    19    74 1
    47    19    75 1
    48    20    22 1
    49    20    76 1
    50    20    77 1
    51    21    19 1
    52    21    78 1
    53    21    79 1
    54    22    24 1
    55    22    80 1
    56    22    81 1
    57    23    21 1
    58    23    26 1
    59    23    82 1
    60    23    83 1
    61    24    25 2
    62    25    17 1
    63    26    84 1
    64    26    85 1
    65    27    10 1
    66    28    26 1
    67    28    86 1
    68    28    87 1
    69    29     4 1
    70    30    28 1
    71    30    32 1
    72    30    88 1
    73    30    89 1
    74    32    90 1
    75    32    91 1
    76    32    92 1
    77    33     4 1
    78    34    35 1
    79    34    93 1
    80    34    94 1
    81    35    95 1
    82    35    96 1
    83    36    35 1
    84    36    37 1
    85    36    97 1
    86    36    98 1
    87    37    47 1
    88    37    99 1
    89    37   100 1
    90    38   127 1
    91    38    39 1
    92    39    40 1
    93    39   101 1
    94    39   102 1
    95    40    41 1
    96    40   103 1
    97    40   104 1
    98    41    42 1
    99    41   105 1
   100    41   106 1
   101    42    43 1
   102    42   107 1
   103    42   108 1
   104    43    44 1
   105    43   109 1
   106    43   110 1
   107    44    45 1
   108    44   111 1
   109    44   112 1
   110    45    46 1
   111    45   113 1
   112    45   114 1
   113    46    34 1
   114    46   115 1
   115    46   116 1
   116    47   117 1
   117    47   118 1
   118    48   119 1
   119    48   120 1
   120    48   121 1
   121    49    47 1
   122    49    48 1
   123    49   122 1
   124    49   123 1
   125    24   124 1
   126    25   125 1
@<TRIPOS>SUBSTRUCTURE
     1 PGW         1 TEMP              0 ****  ****    0 ROOT
