@<TRIPOS>MOLECULE
PGW
  127   114     1     0     0
SMALL
bcc


@<TRIPOS>ATOM
      1 CAD         1.6200   -1.5110   -2.8790 c1        1 PGW     -0.063000
      2 OAE         2.7680   -1.0590   -2.4460 oh        1 PGW     -0.235000
      3 OAF         3.5890    0.4670   -0.2340 oh        1 PGW     -0.382000
      4 P           5.9440   -0.0040    2.4470 p5        1 PGW      2.024000
      5 C01        11.6660    1.7140    6.7790 c2        1 PGW     -0.303000
      6 O01        10.3370    0.8810    4.9090 os        1 PGW     -0.254000
      7 C02        11.4430    0.9210    5.7300 c2        1 PGW     -0.009000
      8 C2          8.0730    3.8750    2.8210 c1        1 PGW     -0.076000
      9 O02         8.9270    1.7950    6.4000 o         1 PGW     -0.372000
     10 C03         7.3200    0.4070    0.2580 c3        1 PGW      0.170000
     11 C3          8.5570    4.9890    2.8960 c1        1 PGW     -0.262000
     12 C04         4.5290    0.8680    1.9790 c3        1 PGW     -0.646000
     13 C4          9.0560    6.2420    2.8110 c1        1 PGW     -0.014000
     14 O04         8.0230   -0.9100   -1.9950 o         1 PGW     -0.365000
     15 C05         3.6470   -0.0090    1.1030 c3        1 PGW     -0.034000
     16 C5          9.6780    6.9630    3.9090 c3        1 PGW     -0.169000
     17 C06        14.0120   11.5080    3.0950 c2        1 PGW     -0.040000
     18 C6         10.3380    8.2450    3.4300 c3        1 PGW     -0.128000
     19 C07        14.8200   11.6230    2.0750 c1        1 PGW     -0.171000
     20 C7         10.9060    9.0280    4.5540 c2        1 PGW     -0.148000
     21 C08        15.6070   11.7080    1.0420 c2        1 PGW     -0.109000
     22 C8         11.0470   10.3520    4.5360 c2        1 PGW     -0.263000
     23 C09        15.6430   12.8710    0.1170 c3        1 PGW     -0.125000
     24 C9         13.5820   11.8610    5.5090 c1        1 PGW      0.196000
     25 C10        14.3370   11.9560    4.4330 c2        1 PGW     -0.435000
     26 C11        15.5310   12.4220   -1.3270 c3        1 PGW     -0.163000
     27 O11         6.5170   -0.4680    0.9500 os        1 PGW     -0.752000
     28 C12        15.6740   13.5950   -2.2730 c3        1 PGW     -0.140000
     29 O12         4.9890    2.0020    1.2780 oh        1 PGW     -0.306000
     30 C13        15.5140   13.1540   -3.7150 c3        1 PGW     -0.249000
     31 O13         6.9830    0.9140    2.9800 o         1 PGW     -0.852500
     32 C14        15.5700   14.2610   -4.6490 c1        1 PGW     -0.046000
     33 O14         5.5140   -1.2330    3.1320 o         1 PGW     -0.852500
     34 C15         1.3650   -5.8430   -9.8100 c3        1 PGW     -0.221000
     35 C16         1.4090   -6.4880  -11.1820 c3        1 PGW     -0.136000
     36 C17         0.2100   -7.3890  -11.3930 c3        1 PGW     -0.116000
     37 C18         0.2210   -8.0020  -12.7570 c3        1 PGW     -0.316000
     38 C19         6.9790   -0.2550   -2.0430 c2        1 PGW      0.318000
     39 C20         5.9940   -0.1730   -3.1720 c3        1 PGW     -0.168000
     40 C21         6.0650   -1.4060   -4.0480 c3        1 PGW     -0.152000
     41 C22         4.9660   -1.3850   -5.0880 c3        1 PGW     -0.160000
     42 C23         4.9860   -2.6380   -5.9370 c3        1 PGW     -0.156000
     43 C24         3.8000   -2.6770   -6.8760 c3        1 PGW     -0.162000
     44 C25         3.8010   -3.9390   -7.7110 c3        1 PGW     -0.134000
     45 C26         2.5640   -4.0110   -8.5870 c3        1 PGW     -0.222000
     46 C27         2.6060   -5.1470   -9.4950 c1        1 PGW     -0.048000
     47 C28        -0.9800   -8.7790  -13.2320 c3        1 PGW     -0.390000
     48 C29        -0.5970  -11.9430  -15.1100 c3        1 PGW     -0.271000
     49 C30        -0.6600   -7.4630  -13.8360 c1        1 PGW      0.181000
     50 HAD         1.7390   -1.7520   -3.9720 ha        1 PGW      0.001000
     51 HADA        4.0360   -1.0660    1.1180 h1        1 PGW      0.096000
     52 HOAE        2.7010   -0.8370   -1.4890 ho        1 PGW      0.286000
     53 HOAF        4.5020    0.5660   -0.5500 ho        1 PGW      0.236000
     54 H01        12.1760    0.1940    5.3330 h4        1 PGW      0.140000
     55 H01A       12.6190    1.6590    7.3200 ha        1 PGW      0.127000
     56 H02        10.9350    2.4300    7.1700 ha        1 PGW      0.127000
     57 H2          7.6450    2.8870    2.7620 ha        1 PGW      0.294000
     58 H2A         8.3780    1.1930    4.4230 h5        1 PGW      0.278000
     59 H03         8.3490   -0.0160    0.1030 h2        1 PGW      0.109500
     60 H03A        7.3120    1.4410    0.7070 h2        1 PGW      0.109500
     61 H3         10.1430    6.8290    6.6890 ha        1 PGW      0.000437
     62 H3A        10.4540    6.8600    7.2900 ha        1 PGW      0.000437
     63 H04         3.9500    1.1900    2.8840 h1        1 PGW      0.098000
     64 H04A        4.2190    2.4590    0.9120 ho        1 PGW      0.193000
     65 H4          7.9510    7.3220    6.7610 ha        1 PGW      0.000437
     66 H4A         7.3500    7.4700    6.4850 ha        1 PGW      0.000437
     67 H05         2.5760    0.0010    1.4420 h1        1 PGW      0.096000
     68 H5          8.8760    7.2120    4.6670 hc        1 PGW      0.109000
     69 H5A        10.4370    6.3270    4.4480 hc        1 PGW      0.109000
     70 H06        11.4990   10.4330    1.1470 ha        1 PGW      0.000437
     71 H06A       11.2380   10.0310    1.6270 ha        1 PGW      0.000437
     72 H6          9.5900    8.8550    2.8560 hc        1 PGW      0.098000
     73 H6A        11.1640    7.9850    2.7130 hc        1 PGW      0.098000
     74 H07        12.9230   12.1010    0.2570 ha        1 PGW      0.000437
     75 H07A       13.0120   11.0450    2.9620 ha        1 PGW      0.157000
     76 H7         11.2280    8.4360    5.4290 ha        1 PGW      0.121000
     77 H7A        10.7250   10.9720    3.6860 ha        1 PGW      0.114000
     78 H08        12.3690   12.1830   -0.1260 ha        1 PGW      0.000437
     79 H08A       16.3060   10.8860    0.8020 ha        1 PGW      0.137000
     80 H8         10.9690   13.0340    2.2800 ha        1 PGW      0.000437
     81 H8A        11.3430   12.5300    2.0230 ha        1 PGW      0.000437
     82 H09        12.9000   14.9140    0.8630 ha        1 PGW      0.000437
     83 H09A       12.5710   14.3350    0.9840 ha        1 PGW      0.000437
     84 H11        14.8110   13.5900    0.3500 hc        1 PGW      0.091500
     85 H11A       16.6130   13.4190    0.2670 hc        1 PGW      0.091500
     86 H12        14.5350   11.9270   -1.4830 hc        1 PGW      0.082500
     87 H12A       16.3210   11.6580   -1.5500 hc        1 PGW      0.082500
     88 H13        16.6810   14.0700   -2.1390 hc        1 PGW      0.091500
     89 H13A       14.9060   14.3770   -2.0350 hc        1 PGW      0.091500
     90 H14        14.4860   12.6950   -3.8520 hc        1 PGW      0.114000
     91 H14A       16.2560   12.3380   -3.9420 hc        1 PGW      0.114000
     92 H14B       15.7470   13.9720   -5.6990 ha        1 PGW      0.028000
     93 H15        -0.5460   -2.8280   -9.4990 ha        1 PGW      0.000437
     94 H15A        0.1020   -2.9460   -9.3420 ha        1 PGW      0.000437
     95 H16         1.2780   -6.6500   -9.0200 hc        1 PGW      0.103500
     96 H16A        0.4420   -5.2030   -9.7200 hc        1 PGW      0.103500
     97 H17         1.4260   -5.6900  -11.9690 hc        1 PGW      0.096000
     98 H17A        2.3570   -7.0780  -11.2860 hc        1 PGW      0.096000
     99 H18         0.2160   -8.2110  -10.6270 hc        1 PGW      0.081000
    100 H18A       -0.7350   -6.8030  -11.2400 hc        1 PGW      0.081000
    101 H20         5.2080   -1.6030   -0.7730 ha        1 PGW      0.000437
    102 H20A        4.7120   -1.8390   -1.1720 ha        1 PGW      0.000437
    103 H21         6.2200    0.7500   -3.7670 hc        1 PGW      0.114500
    104 H21A        4.9590   -0.0630   -2.7420 hc        1 PGW      0.114500
    105 H22         7.0700   -1.4640   -4.5400 hc        1 PGW      0.094500
    106 H22A        5.9600   -2.3190   -3.4020 hc        1 PGW      0.094500
    107 H23         5.0810   -0.4820   -5.7440 hc        1 PGW      0.080500
    108 H23A        3.9710   -1.2970   -4.5710 hc        1 PGW      0.080500
    109 H24         5.9390   -2.6800   -6.5270 hc        1 PGW      0.081500
    110 H24A        4.9690   -3.5420   -5.2730 hc        1 PGW      0.081500
    111 H25         2.8500   -2.6190   -6.2790 hc        1 PGW      0.077000
    112 H25A        3.8220   -1.7790   -7.5490 hc        1 PGW      0.077000
    113 H26         4.7190   -3.9750   -8.3540 hc        1 PGW      0.090500
    114 H26A        3.8320   -4.8360   -7.0380 hc        1 PGW      0.090500
    115 H27         2.5350   -3.1040   -9.2650 hc        1 PGW      0.102000
    116 H27A        1.6420   -3.9590   -7.9420 hc        1 PGW      0.102000
    117 H28        -1.8620   -8.8710  -12.5710 hc        1 PGW      0.149000
    118 H28A        1.2260   -8.3800  -13.0420 hc        1 PGW      0.151000
    119 H29        -0.8240   -9.7110  -13.8120 hc        1 PGW      0.149000
    120 H29A       -1.4340  -12.0170  -14.3810 hc        1 PGW      0.068000
    121 H29B       -0.5050  -12.9020  -15.6650 hc        1 PGW      0.068000
    122 H30        -0.8010  -11.1180  -15.8270 hc        1 PGW      0.068000
    123 H30A        0.3510  -11.7380  -14.5670 hc        1 PGW      0.068000
    124 H9         11.4820   10.9080    5.3800 ha        1 PGW      0.114000
    125 H10        15.3360   12.4290    4.5590 ha        1 PGW      0.191000
    126 C1          9.0920    1.3350    5.2740 c2        1 PGW      0.253000
    127 O03         6.6420    0.5610   -1.0070 os        1 PGW     -0.323000
@<TRIPOS>BOND
     1    1    2 1   
     2    1   50 1   
     3    2   52 1   
     4    3   15 1   
     5    3   53 1   
     6    4   12 1   
     7    4   27 1   
     8    4   31 1   
     9    4   33 1   
    10    5    7 1   
    11    5   55 1   
    12    5   56 1   
    13    6    7 1   
    14    6  126 1   
    15    7   54 1   
    16    8   11 1   
    17    8   57 1   
    18    9  126 1   
    19   10   27 1   
    20   10   59 1   
    21   10   60 1   
    22   10  127 1   
    23   11   13 1   
    24   12   15 1   
    25   12   29 1   
    26   12   63 1   
    27   13   16 1   
    28   14   38 1   
    29   15   51 1   
    30   15   67 1   
    31   16   18 1   
    32   16   68 1   
    33   16   69 1   
    34   17   19 1   
    35   17   25 1   
    36   17   75 1   
    37   18   20 1   
    38   18   72 1   
    39   18   73 1   
    40   19   21 1   
    41   20   22 1   
    42   20   76 1   
    43   21   23 1   
    44   21   79 1   
    45   22   77 1   
    46   22  124 1   
    47   23   26 1   
    48   23   84 1   
    49   23   85 1   
    50   24   25 1   
    51   25  125 1   
    52   26   28 1   
    53   26   86 1   
    54   26   87 1   
    55   28   30 1   
    56   28   88 1   
    57   28   89 1   
    58   29   64 1   
    59   30   32 1   
    60   30   90 1   
    61   30   91 1   
    62   32   92 1   
    63   34   35 1   
    64   34   46 1   
    65   34   95 1   
    66   34   96 1   
    67   35   36 1   
    68   35   97 1   
    69   35   98 1   
    70   36   37 1   
    71   36   99 1   
    72   36  100 1   
    73   37   47 1   
    74   37   49 1   
    75   37  118 1   
    76   38   39 1   
    77   38  127 1   
    78   39   40 1   
    79   39  103 1   
    80   39  104 1   
    81   40   41 1   
    82   40  105 1   
    83   40  106 1   
    84   41   42 1   
    85   41  107 1   
    86   41  108 1   
    87   42   43 1   
    88   42  109 1   
    89   42  110 1   
    90   43   44 1   
    91   43  111 1   
    92   43  112 1   
    93   44   45 1   
    94   44  113 1   
    95   44  114 1   
    96   45   46 1   
    97   45  115 1   
    98   45  116 1   
    99   47   49 1   
   100   47  117 1   
   101   47  119 1   
   102   48  120 1   
   103   48  121 1   
   104   48  122 1   
   105   48  123 1   
   106   58  126 1   
   107   61   62 1   
   108   65   66 1   
   109   70   71 1   
   110   74   78 1   
   111   80   81 1   
   112   82   83 1   
   113   93   94 1   
   114  101  102 1   
@<TRIPOS>SUBSTRUCTURE
     1 PGW         1 TEMP              0 ****  ****    0 ROOT
