@<TRIPOS>MOLECULE
PGX
   57    58     1     0     0
SMALL
bcc


@<TRIPOS>ATOM
      1 C1          4.1000    0.7260    0.8990 c         1 PGX      0.899600
      2 C2          2.7680    0.3450    1.5500 c3        1 PGX     -0.187400
      3 C3          2.8760   -1.0090    2.2160 c3        1 PGX     -0.053400
      4 C4          3.0380   -2.1240    1.1950 c3        1 PGX     -0.060200
      5 C5          3.5900   -3.3450    1.8290 c2        1 PGX     -0.160200
      6 C6          4.8100   -3.8570    1.6430 c2        1 PGX     -0.178200
      7 C7          5.8630   -3.3430    0.7340 c3        1 PGX     -0.032200
      8 C8          6.4250   -2.0050    1.1570 c3        1 PGX     -0.093700
      9 C9          7.1170   -2.0080    2.5410 c3        1 PGX      0.105100
     10 C10         7.9100   -0.6760    2.4620 c3        1 PGX     -0.133400
     11 C11         8.7050   -1.1850    1.2320 c3        1 PGX      0.094100
     12 C12         7.5730   -1.5160    0.2170 c3        1 PGX     -0.062500
     13 C13         7.2020   -0.3480   -0.6130 c2        1 PGX     -0.096200
     14 C14         7.9390    0.2320   -1.5650 c2        1 PGX     -0.275200
     15 C15         9.3180   -0.0780   -2.0340 c3        1 PGX      0.145300
     16 C16         9.6360   -1.5560   -2.2010 c3        1 PGX     -0.082400
     17 C17        10.7950   -1.7690   -3.1520 c3        1 PGX     -0.078400
     18 C18        11.1500   -3.2360   -3.2600 c3        1 PGX     -0.080400
     19 C19        12.3020   -3.4550   -4.2180 c3        1 PGX     -0.079400
     20 C20        12.6620   -4.9150   -4.3260 c3        1 PGX     -0.091100
     21 O1          5.1000    0.9720    1.6400 o         1 PGX     -0.859300
     22 O2          4.1750    0.7470   -0.3660 o         1 PGX     -0.859300
     23 O3          8.2150   -2.9930    2.4920 os        1 PGX     -0.249800
     24 O4          9.1700   -2.4940    1.7250 os        1 PGX     -0.247800
     25 O5         10.3100    0.4160   -1.0720 os        1 PGX     -0.230800
     26 O6         10.2560    1.6920   -0.9240 oh        1 PGX     -0.407000
     27 H21         2.5090    1.1170    2.3170 hc        1 PGX      0.028700
     28 H22         1.9630    0.3330    0.7730 hc        1 PGX      0.028700
     29 H31         3.7660   -0.9960    2.9010 hc        1 PGX      0.026200
     30 H32         1.9680   -1.2070    2.8430 hc        1 PGX      0.026200
     31 H41         2.0400   -2.3630    0.7400 hc        1 PGX      0.056200
     32 H42         3.7010   -1.7620    0.3600 hc        1 PGX      0.056200
     33 H51         2.9000   -3.8390    2.5360 ha        1 PGX      0.096000
     34 H61         5.0990   -4.7660    2.2000 ha        1 PGX      0.101000
     35 H71         5.4440   -3.2360   -0.3040 hc        1 PGX      0.045700
     36 H72         6.7030   -4.0890    0.6850 hc        1 PGX      0.045700
     37 H81         5.6010   -1.2320    1.1920 hc        1 PGX      0.131700
     38 H91         6.5000   -2.2420    3.4230 h1        1 PGX      0.099700
     39 H101        7.2500    0.1980    2.2410 hc        1 PGX      0.095200
     40 H102        8.5520   -0.4920    3.3480 hc        1 PGX      0.095200
     41 H111        9.5840   -0.6320    0.8570 h1        1 PGX      0.111700
     42 H121        7.9050   -2.3670   -0.4350 hc        1 PGX      0.063700
     43 H131        6.1890    0.0830   -0.3950 ha        1 PGX      0.224000
     44 H141        7.4950    1.0940   -2.0960 ha        1 PGX      0.128000
     45 H151        9.5060    0.4690   -3.0020 h1        1 PGX      0.045700
     46 H161        9.8890   -1.9940   -1.1980 hc        1 PGX      0.062700
     47 H162        8.7210   -2.0760   -2.5870 hc        1 PGX      0.062700
     48 H171       10.5310   -1.3700   -4.1670 hc        1 PGX      0.041200
     49 H172       11.6820   -1.1880   -2.7870 hc        1 PGX      0.041200
     50 H181       10.2550   -3.8150   -3.6100 hc        1 PGX      0.041700
     51 H182       11.4230   -3.6320   -2.2460 hc        1 PGX      0.041700
     52 H191       12.0270   -3.0590   -5.2310 hc        1 PGX      0.035700
     53 H192       13.1940   -2.8720   -3.8670 hc        1 PGX      0.035700
     54 H201       11.7920   -5.5090   -4.6970 hc        1 PGX      0.028700
     55 H202       13.5130   -5.0550   -5.0350 hc        1 PGX      0.028700
     56 H203       12.9620   -5.3210   -3.3290 hc        1 PGX      0.028700
     57 HO61        9.4960    1.9020   -0.3310 ho        1 PGX      0.404000
@<TRIPOS>BOND
     1    1    2 1   
     2    1   21 1   
     3    1   22 1   
     4    2    3 1   
     5    2   27 1   
     6    2   28 1   
     7    3    4 1   
     8    3   29 1   
     9    3   30 1   
    10    4    5 1   
    11    4   31 1   
    12    4   32 1   
    13    5    6 2   
    14    5   33 1   
    15    6    7 1   
    16    6   34 1   
    17    7    8 1   
    18    7   35 1   
    19    7   36 1   
    20    8    9 1   
    21    8   12 1   
    22    8   37 1   
    23    9   10 1   
    24    9   23 1   
    25    9   38 1   
    26   10   11 1   
    27   10   39 1   
    28   10   40 1   
    29   11   12 1   
    30   11   24 1   
    31   11   41 1   
    32   12   13 1   
    33   12   42 1   
    34   13   14 2   
    35   13   43 1   
    36   14   15 1   
    37   14   44 1   
    38   15   16 1   
    39   15   25 1   
    40   15   45 1   
    41   16   17 1   
    42   16   46 1   
    43   16   47 1   
    44   17   18 1   
    45   17   48 1   
    46   17   49 1   
    47   18   19 1   
    48   18   50 1   
    49   18   51 1   
    50   19   20 1   
    51   19   52 1   
    52   19   53 1   
    53   20   54 1   
    54   20   55 1   
    55   20   56 1   
    56   23   24 1   
    57   25   26 1   
    58   26   57 1   
@<TRIPOS>SUBSTRUCTURE
     1 PGX         1 TEMP              0 ****  ****    0 ROOT
