@<TRIPOS>MOLECULE
molecule
   57    58     1     0     0
SMALL
bcc


@<TRIPOS>ATOM
      1 C1           0.0000     0.0000     0.0000 c          1 PGX       0.892600
      2 C2           1.5070     0.0000     0.0000 c3         1 PGX      -0.192400
      3 C3           2.0160     0.0000     1.4420 c3         1 PGX      -0.076400
      4 C4           3.5470    -0.0010     1.4420 c3         1 PGX       0.057800
      5 C5           4.0490     0.0000     2.8620 c2         1 PGX      -0.196200
      6 C6           4.9110    -0.9050     3.2510 c2         1 PGX      -0.305200
      7 C7           5.5200    -1.8470     2.2460 c3         1 PGX       0.076800
      8 C8           7.0450    -1.8060     2.3660 c3         1 PGX      -0.102700
      9 C9           7.4960    -2.2690     3.7890 c3         1 PGX       0.109100
     10 C10          8.9340    -2.8130     3.4810 c3         1 PGX      -0.138400
     11 C11          8.4670    -3.8040     2.3580 c3         1 PGX       0.096100
     12 C12          7.6980    -2.8320     1.4120 c3         1 PGX      -0.072500
     13 C13          8.6530    -2.1460     0.4710 c2         1 PGX      -0.153200
     14 C14          8.4800    -2.2410    -0.8230 c2         1 PGX      -0.184200
     15 C15          9.4360    -1.5540    -1.7640 c3         1 PGX       0.159300
     16 C16         10.1010    -2.5940    -2.6650 c3         1 PGX      -0.095400
     17 C17         11.0720    -1.8970    -3.6200 c3         1 PGX      -0.081400
     18 C18         11.7380    -2.9380    -4.5230 c3         1 PGX      -0.082400
     19 C19         12.7070    -2.2400    -5.4780 c3         1 PGX      -0.083400
     20 C20         13.3730    -3.2810    -6.3800 c3         1 PGX      -0.092100
     21 O1          -0.6040     0.0010     1.0470 o          1 PGX      -0.852300
     22 O2          -0.6710    -0.0010    -1.1620 o          1 PGX      -0.852300
     23 O3           6.7900    -3.5290     3.9880 os         1 PGX      -0.201800
     24 O4           7.4110    -4.5260     3.0570 os         1 PGX      -0.217800
     25 O5          10.4360    -0.8680    -1.0100 os         1 PGX      -0.218800
     26 O6          10.8480     0.2940    -1.8070 oh         1 PGX      -0.432000
     27 H21          1.8680     0.8850    -0.5110 hc         1 PGX       0.024200
     28 H22          1.8680    -0.8850    -0.5110 hc         1 PGX       0.024200
     29 H31          1.6540    -0.8840     1.9530 hc         1 PGX       0.062200
     30 H32          1.6550     0.8850     1.9520 hc         1 PGX       0.062200
     31 H41          3.9070    -0.8860     0.9320 hc         1 PGX       0.036700
     32 H42          3.9080     0.8830     0.9300 hc         1 PGX       0.036700
     33 H51          4.6120     0.4730     2.0660 ha         1 PGX       0.061000
     34 H61          4.3960    -1.8060     2.9420 ha         1 PGX       0.091000
     35 H71          5.2280    -1.5480     1.2470 hc         1 PGX       0.056700
     36 H72          5.1700    -2.8550     2.4380 hc         1 PGX       0.056700
     37 H81          7.4150    -0.8090     2.1590 hc         1 PGX       0.068700
     38 H91          7.4190    -1.5390     4.5850 h1         1 PGX       0.126700
     39 H101         9.5870    -2.0390     3.0950 hc         1 PGX       0.064700
     40 H102         9.3620    -3.3330     4.3290 hc         1 PGX       0.064700
     41 H111         9.2430    -4.4060     1.9020 h1         1 PGX       0.107700
     42 H121         6.9380    -3.3680     0.8570 hc         1 PGX       0.076700
     43 H131         9.4830    -1.5720     0.8660 ha         1 PGX       0.137000
     44 H141         7.6500    -2.8140    -1.2190 ha         1 PGX       0.143000
     45 H151         8.8930    -0.8420    -2.3740 h1         1 PGX       0.079700
     46 H161         9.3430    -3.1140    -3.2370 hc         1 PGX       0.049200
     47 H162        10.6440    -3.3060    -2.0550 hc         1 PGX       0.049200
     48 H171        10.5290    -1.1850    -4.2300 hc         1 PGX       0.051700
     49 H172        11.8310    -1.3780    -3.0480 hc         1 PGX       0.051700
     50 H181        12.2810    -3.6500    -3.9130 hc         1 PGX       0.038700
     51 H182        10.9790    -3.4570    -5.0950 hc         1 PGX       0.038700
     52 H191        13.4660    -1.7200    -4.9050 hc         1 PGX       0.040200
     53 H192        12.1640    -1.5280    -6.0880 hc         1 PGX       0.040200
     54 H201        13.9170    -3.9930    -5.7700 hc         1 PGX       0.030700
     55 H202        12.6150    -3.8020    -6.9520 hc         1 PGX       0.030700
     56 H203        14.0600    -2.7870    -7.0560 hc         1 PGX       0.030700
     57 HO61        11.2080     0.9540    -1.2370 ho         1 PGX       0.407000
@<TRIPOS>BOND
     1     1     2 1
     2     1    21 1
     3     1    22 1
     4     2     3 1
     5     2    27 1
     6     2    28 1
     7     3     4 1
     8     3    29 1
     9     3    30 1
    10     4     5 1
    11     4    31 1
    12     4    32 1
    13     5     6 2
    14     5    33 1
    15     6     7 1
    16     6    34 1
    17     7     8 1
    18     7    35 1
    19     7    36 1
    20     8     9 1
    21     8    12 1
    22     8    37 1
    23     9    10 1
    24     9    23 1
    25     9    38 1
    26    10    11 1
    27    10    39 1
    28    10    40 1
    29    11    12 1
    30    11    24 1
    31    11    41 1
    32    12    13 1
    33    12    42 1
    34    13    14 2
    35    13    43 1
    36    14    15 1
    37    14    44 1
    38    15    16 1
    39    15    25 1
    40    15    45 1
    41    16    17 1
    42    16    46 1
    43    16    47 1
    44    17    18 1
    45    17    48 1
    46    17    49 1
    47    18    19 1
    48    18    50 1
    49    18    51 1
    50    19    20 1
    51    19    52 1
    52    19    53 1
    53    20    54 1
    54    20    55 1
    55    20    56 1
    56    23    24 1
    57    25    26 1
    58    26    57 1
@<TRIPOS>SUBSTRUCTURE
     1 PGX         1 TEMP              0 ****  ****    0 ROOT
