@<TRIPOS>MOLECULE
PGZ
   60    62     1     0     0
SMALL
bcc


@<TRIPOS>ATOM
      1 O1B          0.0000     0.0000     0.0000 o          1 PGZ      -0.711100
      2 C1B          1.2160     0.0000     0.0000 c          1 PGZ       0.589700
      3 C5B          1.9540     0.0000     1.2810 ca         1 PGZ      -0.154600
      4 C6B          1.2580     0.0010     2.4910 ca         1 PGZ      -0.049000
      5 C7B          1.9540     0.0010     3.6830 ca         1 PGZ      -0.124500
      6 C2B          3.3380     0.0010     3.6790 ca         1 PGZ      -0.088300
      7 C8B          4.0900     0.0020     4.9850 c3         1 PGZ       0.065200
      8 C3B          4.0330    -0.0000     2.4840 ca         1 PGZ      -0.124500
      9 C4B          3.3500    -0.0060     1.2850 ca         1 PGZ      -0.049000
     10 N1B          1.8890    -0.0070    -1.1660 ns         1 PGZ      -0.138900
     11 C3A          1.1570    -0.0130    -2.4350 c3         1 PGZ      -0.017300
     12 C4A          0.7930     1.4240    -2.8240 c3         1 PGZ       0.137100
     13 O4A          1.9800     2.2150    -2.8980 oh         1 PGZ      -0.563800
     14 C2D          0.0980     1.4140    -4.1880 c3         1 PGZ       0.151100
     15 C6A         -0.2160     2.8510    -4.6110 c3         1 PGZ       0.221400
     16 O6A         -0.9670     2.8370    -5.8260 oh         1 PGZ      -0.582800
     17 O5A          0.9600     0.8100    -5.1560 os         1 PGZ      -0.382600
     18 C1A          1.2960    -0.5480    -4.8690 c3         1 PGZ       0.266200
     19 S1D          2.3590    -1.1990    -6.1860 ss         1 PGZ      -0.294200
     20 C1D          1.2710    -1.1770    -7.6380 c3         1 PGZ       0.080000
     21 C2A          2.0380    -0.6180    -3.5320 c3         1 PGZ       0.260100
     22 O4P          2.3250    -1.9820    -3.2160 os         1 PGZ      -0.480200
     23 P            3.8220    -2.5380    -3.0050 p5         1 PGZ       0.936800
     24 O3P          4.4750    -1.8410    -1.7080 o          1 PGZ      -0.664000
     25 O2P          4.6380    -2.2210    -4.1980 o          1 PGZ      -0.664000
     26 O1P          3.7770    -4.1320    -2.7930 os         1 PGZ      -0.492200
     27 C1C          4.9540    -4.9370    -2.6830 c3         1 PGZ       0.361700
     28 C5C          4.5610    -6.3790    -2.4920 ca         1 PGZ      -0.079300
     29 C6C          4.3830    -7.1990    -3.5920 ca         1 PGZ      -0.083500
     30 C7C          4.0230    -8.5210    -3.4160 ca         1 PGZ      -0.121500
     31 C2C          3.8400    -9.0250    -2.1420 ca         1 PGZ      -0.126000
     32 C4C          4.3830    -6.8830    -1.2180 ca         1 PGZ      -0.083500
     33 C3C          4.0190    -8.2050    -1.0430 ca         1 PGZ      -0.121500
     34 H1B          2.8890     0.0260    -1.1660 hn         1 PGZ       0.226500
     35 H6B          0.1750     0.0010     2.4950 ha         1 PGZ       0.134000
     36 H4B          3.8950    -0.0080     0.3490 ha         1 PGZ       0.134000
     37 H7B          1.4160     0.0020     4.6230 ha         1 PGZ       0.102000
     38 H8B1         4.0100     0.9780     5.4470 hc         1 PGZ       0.001033
     39 H8B2         5.1330    -0.2250     4.8010 hc         1 PGZ       0.001033
     40 H8B3         3.6690    -0.7460     5.6450 hc         1 PGZ       0.001033
     41 H3B          5.1160    -0.0030     2.4880 ha         1 PGZ       0.102000
     42 H3A          0.2530    -0.6000    -2.3340 h1         1 PGZ       0.061700
     43 H4A          0.1220     1.8380    -2.0810 h1         1 PGZ       0.013700
     44 H2A          2.9620    -0.0560    -3.6030 h1         1 PGZ       0.051700
     45 HA           1.8520     3.0190    -2.4240 ho         1 PGZ       0.374000
     46 H2D         -0.8210     0.8440    -4.1200 h1         1 PGZ       0.019700
     47 H6A1         0.7100     3.3920    -4.7650 h1         1 PGZ      -0.008300
     48 H6A2        -0.7940     3.3380    -3.8350 h1         1 PGZ      -0.008300
     49 H6A         -1.3250     3.6950    -5.9840 ho         1 PGZ       0.376000
     50 H1A          0.3890    -1.1370    -4.8070 h2         1 PGZ       0.023700
     51 H1D1         0.2950    -1.5580    -7.3640 h1         1 PGZ       0.021700
     52 H1D2         1.1730    -0.1610    -8.0010 h1         1 PGZ       0.021700
     53 H1D3         1.6950    -1.7990    -8.4170 h1         1 PGZ       0.021700
     54 H1C1         5.5430    -4.8400    -3.5870 h1         1 PGZ      -0.012800
     55 H1C2         5.5390    -4.6060    -1.8330 h1         1 PGZ      -0.012800
     56 H6C          4.5260    -6.8040    -4.5900 ha         1 PGZ       0.109000
     57 H4C          4.5230    -6.2410    -0.3570 ha         1 PGZ       0.109000
     58 H7C          3.8840    -9.1630    -4.2780 ha         1 PGZ       0.089000
     59 H2C          3.5570   -10.0620    -2.0050 ha         1 PGZ       0.087000
     60 H3C          3.8780    -8.6000    -0.0440 ha         1 PGZ       0.089000
@<TRIPOS>BOND
     1     1     2 2   
     2     2     3 1   
     3     2    10 1   
     4     3     4 ar  
     5     3     9 ar  
     6     4     5 ar  
     7     4    35 1   
     8     5     6 ar  
     9     5    37 1   
    10     6     7 1   
    11     6     8 ar  
    12     7    38 1   
    13     7    39 1   
    14     7    40 1   
    15     8     9 ar  
    16     8    41 1   
    17     9    36 1   
    18    10    11 1   
    19    10    34 1   
    20    11    12 1   
    21    11    21 1   
    22    11    42 1   
    23    12    13 1   
    24    12    14 1   
    25    12    43 1   
    26    13    45 1   
    27    14    15 1   
    28    14    17 1   
    29    14    46 1   
    30    15    16 1   
    31    15    47 1   
    32    15    48 1   
    33    16    49 1   
    34    17    18 1   
    35    18    19 1   
    36    18    21 1   
    37    18    50 1   
    38    19    20 1   
    39    20    51 1   
    40    20    52 1   
    41    20    53 1   
    42    21    22 1   
    43    21    44 1   
    44    22    23 1   
    45    23    24 1   
    46    23    25 1   
    47    23    26 1   
    48    26    27 1   
    49    27    28 1   
    50    27    54 1   
    51    27    55 1   
    52    28    29 ar  
    53    28    32 ar  
    54    29    30 ar  
    55    29    56 1   
    56    30    31 ar  
    57    30    58 1   
    58    31    33 ar  
    59    31    59 1   
    60    32    33 ar  
    61    32    57 1   
    62    33    60 1   
@<TRIPOS>SUBSTRUCTURE
     1 PGZ         1 TEMP              0 ****  ****    0 ROOT
