@<TRIPOS>MOLECULE
molecule
   60    62     1     0     0
SMALL
bcc


@<TRIPOS>ATOM
      1 O1B          0.0000     0.0000     0.0000 o          1 PGZ      -0.659100
      2 C1B          1.2160     0.0000     0.0000 c          1 PGZ       0.675700
      3 C5B          1.9540     0.0000     1.2810 ca         1 PGZ      -0.148600
      4 C6B          1.2580     0.0010     2.4910 ca         1 PGZ      -0.073000
      5 C7B          1.9540     0.0010     3.6830 ca         1 PGZ      -0.149000
      6 C2B          3.3380     0.0010     3.6790 ca         1 PGZ      -0.075300
      7 C8B          4.0900     0.0020     4.9850 c3         1 PGZ      -0.047800
      8 C3B          4.0330    -0.0000     2.4840 ca         1 PGZ      -0.149000
      9 C4B          3.3500    -0.0060     1.2850 ca         1 PGZ      -0.073000
     10 N1B          1.8890    -0.0070    -1.1660 ns         1 PGZ      -0.545900
     11 C3A          1.1570    -0.0130    -2.4350 c3         1 PGZ       0.107700
     12 C4A          0.7930     1.4240    -2.8240 c3         1 PGZ       0.095100
     13 O4A          1.9800     2.2150    -2.8980 oh         1 PGZ      -0.583800
     14 C2D          0.0980     1.4140    -4.1880 c3         1 PGZ       0.128100
     15 C6A         -0.2160     2.8510    -4.6110 c3         1 PGZ       0.146400
     16 O6A         -0.9670     2.8370    -5.8260 oh         1 PGZ      -0.600800
     17 O5A          0.9600     0.8100    -5.1560 os         1 PGZ      -0.396600
     18 C1A          1.2960    -0.5480    -4.8690 c3         1 PGZ       0.206200
     19 S1D          2.3590    -1.1990    -6.1860 ss         1 PGZ      -0.187200
     20 C1D          1.2710    -1.1770    -7.6380 c3         1 PGZ      -0.040000
     21 C2A          2.0380    -0.6180    -3.5320 c3         1 PGZ       0.218100
     22 O4P          2.3250    -1.9820    -3.2160 os         1 PGZ      -0.585200
     23 P            3.8220    -2.5380    -3.0050 p5         1 PGZ       1.372800
     24 O3P          4.4750    -1.8410    -1.7080 o          1 PGZ      -0.826500
     25 O2P          4.6380    -2.2210    -4.1980 o          1 PGZ      -0.826500
     26 O1P          3.7770    -4.1320    -2.7930 os         1 PGZ      -0.596200
     27 C1C          4.9540    -4.9370    -2.6830 c3         1 PGZ       0.269700
     28 C5C          4.5610    -6.3790    -2.4920 ca         1 PGZ      -0.068300
     29 C6C          4.3830    -7.1990    -3.5920 ca         1 PGZ      -0.108000
     30 C7C          4.0230    -8.5210    -3.4160 ca         1 PGZ      -0.143500
     31 C2C          3.8400    -9.0250    -2.1420 ca         1 PGZ      -0.143000
     32 C4C          4.3830    -6.8830    -1.2180 ca         1 PGZ      -0.108000
     33 C3C          4.0190    -8.2050    -1.0430 ca         1 PGZ      -0.143500
     34 H1B          2.8890     0.0260    -1.1660 hn         1 PGZ       0.362500
     35 H6B          0.1750     0.0010     2.4950 ha         1 PGZ       0.162000
     36 H4B          3.8950    -0.0080     0.3490 ha         1 PGZ       0.162000
     37 H7B          1.4160     0.0020     4.6230 ha         1 PGZ       0.127000
     38 H8B1         4.0100     0.9780     5.4470 hc         1 PGZ       0.037700
     39 H8B2         5.1330    -0.2250     4.8010 hc         1 PGZ       0.037700
     40 H8B3         3.6690    -0.7460     5.6450 hc         1 PGZ       0.037700
     41 H3B          5.1160    -0.0030     2.4880 ha         1 PGZ       0.127000
     42 H3A          0.2530    -0.6000    -2.3340 h1         1 PGZ       0.088700
     43 H4A          0.1220     1.8380    -2.0810 h1         1 PGZ       0.046700
     44 H2A          2.9620    -0.0560    -3.6030 h1         1 PGZ       0.089700
     45 HA           1.8520     3.0190    -2.4240 ho         1 PGZ       0.390000
     46 H2D         -0.8210     0.8440    -4.1200 h1         1 PGZ       0.048700
     47 H6A1         0.7100     3.3920    -4.7650 h1         1 PGZ       0.029200
     48 H6A2        -0.7940     3.3380    -3.8350 h1         1 PGZ       0.029200
     49 H6A         -1.3250     3.6950    -5.9840 ho         1 PGZ       0.390000
     50 H1A          0.3890    -1.1370    -4.8070 h2         1 PGZ       0.050700
     51 H1D1         0.2950    -1.5580    -7.3640 h1         1 PGZ       0.050700
     52 H1D2         1.1730    -0.1610    -8.0010 h1         1 PGZ       0.050700
     53 H1D3         1.6950    -1.7990    -8.4170 h1         1 PGZ       0.050700
     54 H1C1         5.5430    -4.8400    -3.5870 h1         1 PGZ       0.038200
     55 H1C2         5.5390    -4.6060    -1.8330 h1         1 PGZ       0.038200
     56 H6C          4.5260    -6.8040    -4.5900 ha         1 PGZ       0.137500
     57 H4C          4.5230    -6.2410    -0.3570 ha         1 PGZ       0.137500
     58 H7C          3.8840    -9.1630    -4.2780 ha         1 PGZ       0.115500
     59 H2C          3.5570   -10.0620    -2.0050 ha         1 PGZ       0.112000
     60 H3C          3.8780    -8.6000    -0.0440 ha         1 PGZ       0.115500
@<TRIPOS>BOND
     1     1     2 2
     2     2     3 1
     3     2    10 1
     4     3     4 ar
     5     3     9 ar
     6     4     5 ar
     7     5     6 ar
     8     6     7 1
     9     6     8 ar
    10     8     9 ar
    11    10    11 1
    12    11    12 1
    13    11    21 1
    14    12    13 1
    15    12    14 1
    16    14    15 1
    17    14    17 1
    18    15    16 1
    19    17    18 1
    20    18    19 1
    21    18    21 1
    22    19    20 1
    23    21    22 1
    24    22    23 1
    25    23    24 1
    26    23    25 1
    27    23    26 1
    28    26    27 1
    29    27    28 1
    30    28    29 ar
    31    28    32 ar
    32    29    30 ar
    33    30    31 ar
    34    31    33 ar
    35    10    34 1
    36     4    35 1
    37     9    36 1
    38     5    37 1
    39     7    38 1
    40     7    39 1
    41     7    40 1
    42     8    41 1
    43    11    42 1
    44    12    43 1
    45    21    44 1
    46    13    45 1
    47    14    46 1
    48    15    47 1
    49    15    48 1
    50    16    49 1
    51    18    50 1
    52    20    51 1
    53    20    52 1
    54    20    53 1
    55    27    54 1
    56    27    55 1
    57    29    56 1
    58    32    57 1
    59    30    58 1
    60    31    59 1
    61    33    60 1
    62    32    33 ar
@<TRIPOS>SUBSTRUCTURE
     1 PGZ         1 TEMP              0 ****  ****    0 ROOT
