@<TRIPOS>MOLECULE
molecule
   65    67     1     0     0
SMALL
bcc


@<TRIPOS>ATOM
      1 O1           0.0000     0.0000     0.0000 o          1 PH0      -0.724500
      2 C1           1.7080    -2.7370    -0.1400 c3         1 PH0      -0.011100
      3 C2           0.2010    -2.7380    -0.1400 ca         1 PH0      -0.141300
      4 C3          -0.4900    -2.1350     0.8940 ca         1 PH0      -0.052500
      5 C4          -1.8730    -2.1310     0.8910 ca         1 PH0      -0.135000
      6 C5          -2.5640    -2.7290    -0.1450 ca         1 PH0      -0.104000
      7 C6          -1.8730    -3.3300    -1.1800 ca         1 PH0      -0.135000
      8 C7          -0.4900    -3.3360    -1.1770 ca         1 PH0      -0.052500
      9 C8           2.2180    -1.4880    -0.8600 c3         1 PH0      -0.053700
     10 C9           2.2180     1.4900    -0.8590 c3         1 PH0      -0.226600
     11 C10          1.8120     2.7350    -0.0680 c3         1 PH0      -0.075700
     12 C11          1.9780     3.9570    -0.9340 c          1 PH0       0.671100
     13 C12          1.0880     5.6080    -2.4890 c3         1 PH0      -0.009300
     14 C13         -0.0420     5.5970    -3.5210 c3         1 PH0      -0.264100
     15 C14          0.0610     4.3530    -4.3660 ca         1 PH0      -0.114300
     16 C15          0.8050     4.3700    -5.5320 ca         1 PH0      -0.146000
     17 C16          0.9040     3.2270    -6.3040 ca         1 PH0      -0.130000
     18 C17          0.2500     2.0730    -5.9170 ca         1 PH0      -0.172000
     19 C18         -0.4980     2.0590    -4.7550 ca         1 PH0      -0.130000
     20 C19         -0.5930     3.1990    -3.9800 ca         1 PH0      -0.146000
     21 C20          1.0590     6.9070    -1.7270 c          1 PH0       0.908600
     22 P            1.6100     0.0000     0.0000 p5         1 PH0       0.851400
     23 O5           2.1030     0.0000     1.3950 o          1 PH0      -0.724500
     24 N2           3.6870    -1.4880    -0.8610 nz         1 PH0      -0.783600
     25 C21          2.7010     2.8640     1.1710 c3         1 PH0      -0.039100
     26 C22          2.2460     4.0410     1.9940 ca         1 PH0      -0.085300
     27 C23          1.2170     3.8910     2.9060 ca         1 PH0      -0.094500
     28 C24          0.8000     4.9710     3.6620 ca         1 PH0      -0.129000
     29 C25          1.4130     6.2000     3.5070 ca         1 PH0      -0.133000
     30 C26          2.4430     6.3510     2.5960 ca         1 PH0      -0.129000
     31 C27          2.8630     5.2690     1.8440 ca         1 PH0      -0.094500
     32 O2           3.0740     4.4590    -1.0700 o          1 PH0      -0.628100
     33 N1           0.9100     4.4900    -1.5590 ns         1 PH0      -0.584900
     34 H11          2.0690    -2.7370     0.8820 hc         1 PH0       0.047700
     35 H12A         2.0700    -3.6220    -0.6500 hc         1 PH0       0.047700
     36 H3           0.0510    -1.6670     1.7070 ha         1 PH0       0.130000
     37 H4          -2.4150    -1.6590     1.7020 ha         1 PH0       0.125500
     38 H5          -3.6470    -2.7250    -0.1480 ha         1 PH0       0.120000
     39 H6          -2.4140    -3.7990    -1.9930 ha         1 PH0       0.125500
     40 H7           0.0520    -3.8070    -1.9880 ha         1 PH0       0.130000
     41 H8           1.8560    -1.4870    -1.8820 hx         1 PH0       0.111700
     42 H91          3.2990     1.4500    -0.9130 hc         1 PH0       0.029700
     43 H92          1.8070     1.0820    -1.7740 hc         1 PH0       0.029700
     44 H10          0.7770     2.6470     0.2390 hc         1 PH0       0.082700
     45 H12          2.0400     5.5080    -2.9960 h1         1 PH0       0.059700
     46 H131        -0.3470     5.0030    -2.6670 hc         1 PH0       0.212200
     47 H132         1.0050     5.6580    -3.7940 hc         1 PH0       0.212200
     48 H15          1.3180     5.2740    -5.8350 ha         1 PH0       0.134000
     49 H16          1.4890     3.2380    -7.2160 ha         1 PH0       0.113500
     50 H17          0.3260     1.1780    -6.5230 ha         1 PH0       0.105000
     51 H18         -1.0110     1.1540    -4.4520 ha         1 PH0       0.113500
     52 H19         -1.1800     3.1880    -3.0690 ha         1 PH0       0.134000
     53 HN21         4.0210    -2.3740    -1.1840 hn         1 PH0       0.438800
     54 HN22         4.0200    -0.7650    -1.4680 hn         1 PH0       0.438800
     55 H211         2.6300     1.9600     1.7630 hc         1 PH0       0.068200
     56 H212         3.7290     3.0140     0.8630 hc         1 PH0       0.068200
     57 H23          0.7500     2.9230     3.0400 ha         1 PH0       0.127000
     58 H24          0.0010     4.8500     4.3830 ha         1 PH0       0.120000
     59 H25          1.0870     7.0460     4.1010 ha         1 PH0       0.113000
     60 H26          2.9500     7.3040     2.5050 ha         1 PH0       0.120000
     61 H27          3.9300     5.3170     1.6680 ha         1 PH0       0.127000
     62 HN1         -0.0080     4.1440    -1.3630 hn         1 PH0       0.319500
     63 O4           1.6010     8.0110    -2.2630 o          1 PH0      -0.812800
     64 H231         4.0210    -1.3240     0.0680 hn         1 PH0       0.438800
     65 O3           0.5490     6.9530    -0.6330 o          1 PH0      -0.812800
@<TRIPOS>BOND
     1     5     6 ar
     2     5     4 ar
     3    63    21 1
     4     6     7 ar
     5     4     3 ar
     6    21    13 1
     7    21    65 1
     8     7     8 ar
     9    32    12 2
    10    13    14 1
    11    13    33 1
    12     3     8 ar
    13     3     2 1
    14    14    15 1
    15    20    15 ar
    16    20    19 ar
    17    12    33 1
    18    12    11 1
    19    10    11 1
    20    10    22 1
    21     2     9 1
    22    15    16 ar
    23     9    24 1
    24     9    22 1
    25    19    18 ar
    26    11    25 1
    27    22    23 1
    28    22     1 1
    29    25    26 1
    30    16    17 ar
    31    18    17 ar
    32    26    27 ar
    33    26    31 ar
    34    27    28 ar
    35    31    30 ar
    36    28    29 ar
    37    30    29 ar
    38     2    34 1
    39     2    35 1
    40     4    36 1
    41     5    37 1
    42     6    38 1
    43     7    39 1
    44     8    40 1
    45     9    41 1
    46    10    42 1
    47    10    43 1
    48    11    44 1
    49    13    45 1
    50    14    46 1
    51    14    47 1
    52    16    48 1
    53    17    49 1
    54    18    50 1
    55    19    51 1
    56    20    52 1
    57    24    53 1
    58    24    54 1
    59    25    55 1
    60    25    56 1
    61    27    57 1
    62    28    58 1
    63    29    59 1
    64    30    60 1
    65    31    61 1
    66    33    62 1
    67    64    24 1
@<TRIPOS>SUBSTRUCTURE
     1 PH0         1 TEMP              0 ****  ****    0 ROOT
