@<TRIPOS>MOLECULE
molecule
  133   132     1     0     0
SMALL
bcc


@<TRIPOS>ATOM
      1 O1           0.0000     0.0000     0.0000 os         1 PH1      -0.401600
      2 C1           1.4290     0.0000     0.0000 c3         1 PH1       0.122400
      3 C2           1.9390     0.0000     1.4420 c3         1 PH1      -0.077400
      4 C3           3.4690     0.0000     1.4420 c3         1 PH1      -0.074700
      5 C4           3.9800     1.2470     0.7180 c3         1 PH1      -0.094100
      6 C5           3.9800     0.0000     2.8840 c3         1 PH1      -0.075400
      7 C6           5.5090     0.0010     2.8840 c3         1 PH1      -0.086400
      8 C7           6.0200     0.0010     4.3260 c3         1 PH1      -0.077400
      9 C8           7.5500     0.0010     4.3260 c3         1 PH1      -0.074700
     10 C9           8.0610     1.2470     3.6020 c3         1 PH1      -0.092100
     11 C10          8.0600     0.0010     5.7670 c3         1 PH1      -0.077400
     12 C11          9.5890     0.0010     5.7680 c3         1 PH1      -0.085400
     13 C12         10.1010     0.0010     7.2090 c3         1 PH1      -0.076400
     14 C13         11.6300     0.0010     7.2090 c3         1 PH1      -0.074700
     15 C14         12.1410     1.2490     6.4860 c3         1 PH1      -0.094100
     16 C15         12.1410     0.0020     8.6520 c3         1 PH1      -0.077400
     17 C16         13.6700     0.0010     8.6510 c3         1 PH1      -0.086400
     18 C17         14.1810     0.0020    10.0940 c3         1 PH1      -0.076400
     19 C18         15.7100     0.0020    10.0930 c3         1 PH1      -0.077700
     20 C19         16.2210     0.0030    11.5360 c3         1 PH1      -0.087600
     21 C20         16.2190    -1.2490     9.3740 c3         1 PH1      -0.087600
     22 O31         -2.4490    -1.1650    -0.7870 os         1 PH1      -0.396600
     23 C31         -3.7300    -0.8170    -0.2570 c3         1 PH1       0.123400
     24 C32         -4.3320    -2.0270     0.4590 c3         1 PH1      -0.078400
     25 C33         -5.7030    -1.6550     1.0270 c3         1 PH1      -0.073700
     26 C34         -6.6280    -1.2250    -0.1140 c3         1 PH1      -0.094100
     27 C35         -6.3060    -2.8650     1.7420 c3         1 PH1      -0.075400
     28 C36         -7.6760    -2.4930     2.3100 c3         1 PH1      -0.086400
     29 C37         -8.2780    -3.7020     3.0250 c3         1 PH1      -0.076400
     30 C38         -9.6500    -3.3310     3.5930 c3         1 PH1      -0.074700
     31 C39        -10.5730    -2.9000     2.4520 c3         1 PH1      -0.094100
     32 C40        -10.2520    -4.5400     4.3080 c3         1 PH1      -0.077400
     33 C41        -11.6220    -4.1680     4.8760 c3         1 PH1      -0.086400
     34 C42        -12.2250    -5.3780     5.5910 c3         1 PH1      -0.077400
     35 C43        -13.5950    -5.0060     6.1590 c3         1 PH1      -0.073700
     36 C44        -14.5200    -4.5750     5.0180 c3         1 PH1      -0.092100
     37 C45        -14.1980    -6.2160     6.8750 c3         1 PH1      -0.077400
     38 C46        -15.5690    -5.8440     7.4420 c3         1 PH1      -0.085400
     39 C47        -16.1720    -7.0540     8.1580 c3         1 PH1      -0.076400
     40 C48        -17.5420    -6.6810     8.7250 c3         1 PH1      -0.077700
     41 C49        -18.1450    -7.8910     9.4410 c3         1 PH1      -0.087600
     42 C50        -17.3870    -5.5280     9.7190 c3         1 PH1      -0.087600
     43 C51         -0.4140    -0.0010    -1.3680 c3         1 PH1       0.128400
     44 C52         -1.9410    -0.0000    -1.4390 c3         1 PH1       0.131100
     45 C53         -2.3840    -0.0010    -2.9030 c3         1 PH1      -0.120100
     46 H11          1.7900    -0.8850    -0.5110 h1         1 PH1       0.025700
     47 H12          1.7900     0.8840    -0.5110 h1         1 PH1       0.025700
     48 H21          1.5780     0.8840     1.9530 hc         1 PH1       0.054200
     49 H22          1.5780    -0.8850     1.9530 hc         1 PH1       0.054200
     50 H3           3.8290    -0.8850     0.9320 hc         1 PH1       0.049700
     51 H41          3.5370     1.2980    -0.2690 hc         1 PH1       0.035033
     52 H42          5.0580     1.1960     0.6280 hc         1 PH1       0.035033
     53 H43A         3.7060     2.1300     1.2830 hc         1 PH1       0.035033
     54 H51          3.6180     0.8850     3.3950 hc         1 PH1       0.043200
     55 H52A         3.6190    -0.8840     3.3950 hc         1 PH1       0.043200
     56 H61          5.8700     0.8850     2.3730 hc         1 PH1       0.044200
     57 H62          5.8710    -0.8840     2.3730 hc         1 PH1       0.044200
     58 H71          5.6590    -0.8840     4.8370 hc         1 PH1       0.041700
     59 H72          5.6590     0.8850     4.8370 hc         1 PH1       0.041700
     60 H8           7.9100    -0.8850     3.8160 hc         1 PH1       0.049700
     61 H91          7.6750     1.2610     2.5900 hc         1 PH1       0.034367
     62 H92          7.7250     2.1330     4.1280 hc         1 PH1       0.034367
     63 H93          9.1430     1.2310     3.5760 hc         1 PH1       0.034367
     64 H101         7.6990    -0.8830     6.2780 hc         1 PH1       0.041200
     65 H102         7.6990     0.8860     6.2770 hc         1 PH1       0.041200
     66 H111         9.9500     0.8850     5.2560 hc         1 PH1       0.044200
     67 H112         9.9500    -0.8840     5.2570 hc         1 PH1       0.044200
     68 H121         9.7390    -0.8830     7.7200 hc         1 PH1       0.041200
     69 H122         9.7400     0.8860     7.7190 hc         1 PH1       0.041200
     70 H13         11.9900    -0.8840     6.7000 hc         1 PH1       0.049700
     71 H141        12.5800     0.9620     5.5380 hc         1 PH1       0.035367
     72 H142        11.3160     1.9290     6.3120 hc         1 PH1       0.035367
     73 H143        12.8900     1.7390     7.0970 hc         1 PH1       0.035367
     74 H151        11.7800     0.8870     9.1620 hc         1 PH1       0.041200
     75 H152        11.7790    -0.8820     9.1640 hc         1 PH1       0.041200
     76 H161        14.0310     0.8850     8.1400 hc         1 PH1       0.044200
     77 H162        14.0300    -0.8840     8.1410 hc         1 PH1       0.044200
     78 H171        13.8200    -0.8810    10.6060 hc         1 PH1       0.040700
     79 H172        13.8210     0.8880    10.6040 hc         1 PH1       0.040700
     80 H18         16.0720     0.8850     9.5810 hc         1 PH1       0.048700
     81 H191        15.8920    -0.9010    12.0350 hc         1 PH1       0.033033
     82 H192        15.8280     0.8670    12.0570 hc         1 PH1       0.033033
     83 H193        17.3030     0.0420    11.5360 hc         1 PH1       0.033033
     84 H201        17.2090    -1.4960     9.7370 hc         1 PH1       0.033033
     85 H202        16.2620    -1.0600     8.3080 hc         1 PH1       0.033033
     86 H203        15.5460    -2.0760     9.5680 hc         1 PH1       0.033033
     87 H311        -4.3840    -0.5130    -1.0650 h1         1 PH1       0.027200
     88 H312        -3.6190     0.0000     0.4460 h1         1 PH1       0.027200
     89 H321        -4.4420    -2.8450    -0.2430 hc         1 PH1       0.053700
     90 H322        -3.6780    -2.3310     1.2670 hc         1 PH1       0.053700
     91 H33         -5.5930    -0.8390     1.7300 hc         1 PH1       0.050700
     92 H341        -6.7680    -2.0530    -0.7970 hc         1 PH1       0.035033
     93 H342        -7.5860    -0.9260     0.2920 hc         1 PH1       0.035033
     94 H343        -6.1840    -0.3910    -0.6430 hc         1 PH1       0.035033
     95 H351        -5.6510    -3.1700     2.5500 hc         1 PH1       0.042700
     96 H352        -6.4160    -3.6820     1.0390 hc         1 PH1       0.042700
     97 H361        -8.3310    -2.1880     1.5020 hc         1 PH1       0.044200
     98 H362        -7.5660    -1.6760     3.0130 hc         1 PH1       0.044200
     99 H371        -7.6240    -4.0060     3.8330 hc         1 PH1       0.041700
    100 H372        -8.3880    -4.5190     2.3230 hc         1 PH1       0.041700
    101 H38         -9.5400    -2.5140     4.2960 hc         1 PH1       0.049700
    102 H391       -11.4450    -3.5430     2.4310 hc         1 PH1       0.035367
    103 H392       -10.8850    -1.8740     2.6080 hc         1 PH1       0.035367
    104 H393       -10.0440    -2.9770     1.5100 hc         1 PH1       0.035367
    105 H401       -10.3620    -5.3570     3.6050 hc         1 PH1       0.041200
    106 H402        -9.5970    -4.8440     5.1160 hc         1 PH1       0.041200
    107 H411       -11.5120    -3.3510     5.5790 hc         1 PH1       0.044200
    108 H412       -12.2770    -3.8630     4.0680 hc         1 PH1       0.044200
    109 H421       -11.5700    -5.6830     6.3990 hc         1 PH1       0.041200
    110 H422       -12.3350    -6.1950     4.8880 hc         1 PH1       0.041200
    111 H43        -13.4850    -4.1890     6.8610 hc         1 PH1       0.049700
    112 H441       -14.5630    -5.3590     4.2720 hc         1 PH1       0.034367
    113 H442       -14.1380    -3.6670     4.5660 hc         1 PH1       0.034367
    114 H443       -15.5140    -4.3930     5.4080 hc         1 PH1       0.034367
    115 H451       -13.5440    -6.5200     7.6830 hc         1 PH1       0.041200
    116 H452       -14.3080    -7.0330     6.1730 hc         1 PH1       0.041200
    117 H461       -16.2230    -5.5390     6.6340 hc         1 PH1       0.044200
    118 H462       -15.4590    -5.0270     8.1450 hc         1 PH1       0.044200
    119 H471       -16.2820    -7.8710     7.4550 hc         1 PH1       0.041200
    120 H472       -15.5170    -7.3590     8.9650 hc         1 PH1       0.041200
    121 H48        -18.1970    -6.3760     7.9180 hc         1 PH1       0.048700
    122 H491       -19.1350    -7.6400     9.8030 hc         1 PH1       0.032867
    123 H492       -18.2140    -8.7220     8.7490 hc         1 PH1       0.032867
    124 H493       -17.5140    -8.1680    10.2760 hc         1 PH1       0.032867
    125 H501       -18.2020    -5.5520    10.4310 hc         1 PH1       0.032867
    126 H502       -16.4450    -5.6280    10.2440 hc         1 PH1       0.032867
    127 H503       -17.4030    -4.5860     9.1840 hc         1 PH1       0.032867
    128 H511        -0.0290     0.8830    -1.8620 h1         1 PH1       0.032700
    129 H512        -0.0300    -0.8860    -1.8610 h1         1 PH1       0.032700
    130 H52         -2.3250     0.8850    -0.9460 h1         1 PH1       0.047700
    131 H531        -3.2860     0.5900    -3.0080 hc         1 PH1       0.043700
    132 H532        -1.6000     0.4250    -3.5170 hc         1 PH1       0.043700
    133 H533        -2.5800    -1.0180    -3.2210 hc         1 PH1       0.043700
@<TRIPOS>BOND
     1     1     2 1
     2     1    43 1
     3     2     3 1
     4     2    46 1
     5     2    47 1
     6     3     4 1
     7     3    48 1
     8     3    49 1
     9     4     5 1
    10     4     6 1
    11     4    50 1
    12     5    51 1
    13     5    52 1
    14     5    53 1
    15     6     7 1
    16     6    54 1
    17     6    55 1
    18     7     8 1
    19     7    56 1
    20     7    57 1
    21     8     9 1
    22     8    58 1
    23     8    59 1
    24     9    10 1
    25     9    11 1
    26     9    60 1
    27    10    61 1
    28    10    62 1
    29    10    63 1
    30    11    12 1
    31    11    64 1
    32    11    65 1
    33    12    13 1
    34    12    66 1
    35    12    67 1
    36    13    14 1
    37    13    68 1
    38    13    69 1
    39    14    15 1
    40    14    16 1
    41    14    70 1
    42    15    71 1
    43    15    72 1
    44    15    73 1
    45    16    17 1
    46    16    74 1
    47    16    75 1
    48    17    18 1
    49    17    76 1
    50    17    77 1
    51    18    19 1
    52    18    78 1
    53    18    79 1
    54    19    20 1
    55    19    21 1
    56    19    80 1
    57    20    81 1
    58    20    82 1
    59    20    83 1
    60    21    84 1
    61    21    85 1
    62    21    86 1
    63    22    23 1
    64    22    44 1
    65    23    24 1
    66    23    87 1
    67    23    88 1
    68    24    25 1
    69    24    89 1
    70    24    90 1
    71    25    26 1
    72    25    27 1
    73    25    91 1
    74    26    92 1
    75    26    93 1
    76    26    94 1
    77    27    28 1
    78    27    95 1
    79    27    96 1
    80    28    29 1
    81    28    97 1
    82    28    98 1
    83    29    30 1
    84    29    99 1
    85    29   100 1
    86    30    31 1
    87    30    32 1
    88    30   101 1
    89    31   102 1
    90    31   103 1
    91    31   104 1
    92    32    33 1
    93    32   105 1
    94    32   106 1
    95    33    34 1
    96    33   107 1
    97    33   108 1
    98    34    35 1
    99    34   109 1
   100    34   110 1
   101    35    36 1
   102    35    37 1
   103    35   111 1
   104    36   112 1
   105    36   113 1
   106    36   114 1
   107    37    38 1
   108    37   115 1
   109    37   116 1
   110    38    39 1
   111    38   117 1
   112    38   118 1
   113    39    40 1
   114    39   119 1
   115    39   120 1
   116    40    41 1
   117    40    42 1
   118    40   121 1
   119    41   122 1
   120    41   123 1
   121    41   124 1
   122    42   125 1
   123    42   126 1
   124    42   127 1
   125    43    44 1
   126    43   128 1
   127    43   129 1
   128    44    45 1
   129    44   130 1
   130    45   131 1
   131    45   132 1
   132    45   133 1
@<TRIPOS>SUBSTRUCTURE
     1 PH1         1 TEMP              0 ****  ****    0 ROOT
