@<TRIPOS>MOLECULE
PH1
  133   132     1     0     0
SMALL
bcc


@<TRIPOS>ATOM
      1 O1          0.3960    0.4330   -0.7160 os        1 PH1     -0.430600
      2 C1          1.6310   -0.2830   -0.7200 c3        1 PH1      0.132400
      3 C2          2.6540    0.6240   -0.0600 c3        1 PH1     -0.081400
      4 C3          3.9800   -0.0920    0.1560 c3        1 PH1     -0.063700
      5 C4          4.6730   -0.3600   -1.1640 c3        1 PH1     -0.091100
      6 C5          4.8640    0.7400    1.0770 c3        1 PH1     -0.076400
      7 C6          5.9950   -0.0700    1.6740 c3        1 PH1     -0.079400
      8 C7          6.8260    0.7750    2.6170 c3        1 PH1     -0.076400
      9 C8          7.9550   -0.0190    3.2630 c3        1 PH1     -0.064700
     10 C9          9.0740   -0.2690    2.2730 c3        1 PH1     -0.089100
     11 C10         8.4700    0.7240    4.4900 c3        1 PH1     -0.076400
     12 C11         9.3340   -0.1510    5.3740 c3        1 PH1     -0.079400
     13 C12         9.7600    0.5940    6.6220 c3        1 PH1     -0.076400
     14 C13        10.6080   -0.2680    7.5490 c3        1 PH1     -0.064700
     15 C14        12.0110   -0.4320    7.0000 c3        1 PH1     -0.089100
     16 C15        10.6370    0.3490    8.9420 c3        1 PH1     -0.076400
     17 C16        11.1660   -0.6110    9.9880 c3        1 PH1     -0.079400
     18 C17        11.0960    0.0030   11.3700 c3        1 PH1     -0.076400
     19 C18        11.6630   -0.9170   12.4420 c3        1 PH1     -0.067700
     20 C19        11.9600   -0.1290   13.7020 c3        1 PH1     -0.089600
     21 C20        10.7130   -2.0550   12.7530 c3        1 PH1     -0.089600
     22 O31        -3.0030   -0.3670   -1.1500 os        1 PH1     -0.429600
     23 C31        -4.1750    0.1930   -0.5580 c3        1 PH1      0.133400
     24 C32        -5.2260   -0.9040   -0.5730 c3        1 PH1     -0.081400
     25 C33        -6.4720   -0.4940    0.1980 c3        1 PH1     -0.063700
     26 C34        -7.2200    0.6060   -0.5260 c3        1 PH1     -0.091100
     27 C35        -7.3640   -1.7120    0.4080 c3        1 PH1     -0.076400
     28 C36        -8.3860   -1.4940    1.5040 c3        1 PH1     -0.079400
     29 C37        -9.2250   -2.7370    1.7150 c3        1 PH1     -0.076400
     30 C38       -10.2440   -2.5650    2.8350 c3        1 PH1     -0.064700
     31 C39       -11.3960   -1.6910    2.3860 c3        1 PH1     -0.089100
     32 C40       -10.7420   -3.9290    3.2930 c3        1 PH1     -0.076400
     33 C41       -11.4770   -3.8620    4.6160 c3        1 PH1     -0.079400
     34 C42       -11.8850   -5.2450    5.0790 c3        1 PH1     -0.076400
     35 C43       -12.6020   -5.2170    6.4230 c3        1 PH1     -0.064700
     36 C44       -14.0170   -4.6980    6.2690 c3        1 PH1     -0.089100
     37 C45       -12.5980   -6.6100    7.0390 c3        1 PH1     -0.076400
     38 C46       -12.9790   -6.5950    8.5050 c3        1 PH1     -0.079400
     39 C47       -12.8770   -7.9820    9.1050 c3        1 PH1     -0.076400
     40 C48       -13.2970   -8.0120   10.5670 c3        1 PH1     -0.067700
     41 C49       -13.5840   -9.4370   10.9970 c3        1 PH1     -0.089600
     42 C50       -12.2370   -7.4030   11.4600 c3        1 PH1     -0.089600
     43 C51        -0.6560   -0.3140   -1.3230 c3        1 PH1      0.128400
     44 C52        -1.9140    0.5590   -1.2160 c3        1 PH1      0.138100
     45 C53        -2.0540    1.4730   -2.4170 c3        1 PH1     -0.119100
     46 H11         1.5100   -1.2420   -0.1470 h1        1 PH1      0.027200
     47 H12         1.9190   -0.5250   -1.7780 h1        1 PH1      0.027200
     48 H21         2.8090    1.5340   -0.6950 hc        1 PH1      0.054700
     49 H22         2.2420    0.9700    0.9240 hc        1 PH1      0.054700
     50 H3          3.7730   -1.0800    0.6590 hc        1 PH1      0.047700
     51 H41         5.6520   -0.8700   -0.9950 hc        1 PH1      0.034367
     52 H42         4.8620    0.5960   -1.7100 hc        1 PH1      0.034367
     53 H43A        4.0430   -1.0180   -1.8100 hc        1 PH1      0.034367
     54 H51         5.2820    1.6090    0.5050 hc        1 PH1      0.041700
     55 H52A        4.2390    1.1600    1.9100 hc        1 PH1      0.041700
     56 H61         5.5760   -0.9510    2.2290 hc        1 PH1      0.040700
     57 H62         6.6460   -0.4750    0.8550 hc        1 PH1      0.040700
     58 H71         6.1560    1.1880    3.4180 hc        1 PH1      0.040200
     59 H72         7.2560    1.6490    2.0610 hc        1 PH1      0.040200
     60 H8          7.5440   -1.0130    3.5980 hc        1 PH1      0.047700
     61 H91         8.6880   -0.8110    1.3760 hc        1 PH1      0.033367
     62 H92         9.8760   -0.8910    2.7390 hc        1 PH1      0.033367
     63 H93         9.5250    0.6960    1.9360 hc        1 PH1      0.033367
     64 H101        7.5970    1.0950    5.0900 hc        1 PH1      0.039700
     65 H102        9.0540    1.6230    4.1630 hc        1 PH1      0.039700
     66 H111        8.7640   -1.0740    5.6630 hc        1 PH1      0.040700
     67 H112       10.2400   -0.4870    4.8050 hc        1 PH1      0.040700
     68 H121        8.8420    0.9370    7.1700 hc        1 PH1      0.039700
     69 H122       10.3370    1.5120    6.3350 hc        1 PH1      0.039700
     70 H13        10.1320   -1.2860    7.6230 hc        1 PH1      0.047700
     71 H141       11.9800   -0.8790    5.9780 hc        1 PH1      0.033367
     72 H142       12.6110   -1.1050    7.6580 hc        1 PH1      0.033367
     73 H143       12.5280    0.5560    6.9390 hc        1 PH1      0.033367
     74 H151       11.2690    1.2750    8.9250 hc        1 PH1      0.039200
     75 H152        9.5980    0.6610    9.2300 hc        1 PH1      0.039200
     76 H161       10.5680   -1.5600    9.9630 hc        1 PH1      0.040700
     77 H162       12.2290   -0.8820    9.7530 hc        1 PH1      0.040700
     78 H171       10.0310    0.2540   11.6190 hc        1 PH1      0.039700
     79 H172       11.6720    0.9670   11.3720 hc        1 PH1      0.039700
     80 H18        12.6300   -1.3540   12.0610 hc        1 PH1      0.045700
     81 H191       12.3650   -0.8020   14.4940 hc        1 PH1      0.033033
     82 H192       11.0310    0.3550   14.0890 hc        1 PH1      0.033033
     83 H193       12.7130    0.6690   13.4950 hc        1 PH1      0.033033
     84 H201        9.7390   -1.6630   13.1310 hc        1 PH1      0.033033
     85 H202       11.1520   -2.7220   13.5340 hc        1 PH1      0.033033
     86 H203       10.5180   -2.6640   11.8380 hc        1 PH1      0.033033
     87 H311       -4.5080    1.0840   -1.1530 h1        1 PH1      0.027200
     88 H312       -3.9460    0.5190    0.4920 h1        1 PH1      0.027200
     89 H321       -5.4930   -1.1490   -1.6330 hc        1 PH1      0.054200
     90 H322       -4.7830   -1.8290   -0.1180 hc        1 PH1      0.054200
     91 H33        -6.1560   -0.1080    1.2080 hc        1 PH1      0.047700
     92 H341       -6.5790    1.5160   -0.6220 hc        1 PH1      0.034367
     93 H342       -7.5170    0.2730   -1.5490 hc        1 PH1      0.034367
     94 H343       -8.1430    0.8870    0.0360 hc        1 PH1      0.034367
     95 H351       -6.7270   -2.5960    0.6760 hc        1 PH1      0.041700
     96 H352       -7.8870   -1.9600   -0.5530 hc        1 PH1      0.041700
     97 H361       -9.0500   -0.6300    1.2370 hc        1 PH1      0.040700
     98 H362       -7.8620   -1.2280    2.4590 hc        1 PH1      0.040700
     99 H371       -8.5440   -3.5960    1.9600 hc        1 PH1      0.040200
    100 H372       -9.7590   -2.9990    0.7640 hc        1 PH1      0.040200
    101 H38        -9.7330   -2.0640    3.7060 hc        1 PH1      0.047700
    102 H391      -11.9450   -2.1680    1.5390 hc        1 PH1      0.033367
    103 H392      -11.0230   -0.6940    2.0480 hc        1 PH1      0.033367
    104 H393      -12.1140   -1.5280    3.2250 hc        1 PH1      0.033367
    105 H401       -9.8670   -4.6250    3.4010 hc        1 PH1      0.039700
    106 H402      -11.4160   -4.3630    2.5090 hc        1 PH1      0.039700
    107 H411      -10.8180   -3.3860    5.3890 hc        1 PH1      0.040700
    108 H412      -12.3860   -3.2140    4.5110 hc        1 PH1      0.040700
    109 H421      -12.5510   -5.7190    4.3110 hc        1 PH1      0.039700
    110 H422      -10.9660   -5.8850    5.1620 hc        1 PH1      0.039700
    111 H43       -12.0400   -4.5230    7.1110 hc        1 PH1      0.047700
    112 H441      -14.0120   -3.6790    5.8130 hc        1 PH1      0.033700
    113 H442      -14.5210   -4.6340    7.2630 hc        1 PH1      0.033700
    114 H443      -14.6150   -5.3750    5.6130 hc        1 PH1      0.033700
    115 H451      -13.3040   -7.2700    6.4710 hc        1 PH1      0.039200
    116 H452      -11.5720   -7.0560    6.9370 hc        1 PH1      0.039200
    117 H461      -12.3060   -5.8910    9.0610 hc        1 PH1      0.040700
    118 H462      -14.0270   -6.2130    8.6210 hc        1 PH1      0.040700
    119 H471      -13.5320   -8.6820    8.5200 hc        1 PH1      0.039700
    120 H472      -11.8250   -8.3580    9.0110 hc        1 PH1      0.039700
    121 H48       -14.2450   -7.4110   10.6780 hc        1 PH1      0.045700
    122 H491      -14.4150   -9.8690   10.3890 hc        1 PH1      0.033033
    123 H492      -13.8810   -9.4650   12.0730 hc        1 PH1      0.033033
    124 H493      -12.6780  -10.0760   10.8640 hc        1 PH1      0.033033
    125 H501      -12.0460   -6.3410   11.1740 hc        1 PH1      0.033033
    126 H502      -11.2790   -7.9700   11.3760 hc        1 PH1      0.033033
    127 H503      -12.5690   -7.4270   12.5260 hc        1 PH1      0.033033
    128 H511       -0.4050   -0.5260   -2.3950 h1        1 PH1      0.040700
    129 H512       -0.8060   -1.2830   -0.7770 h1        1 PH1      0.040700
    130 H52        -1.8630    1.1670   -0.2690 h1        1 PH1      0.057700
    131 H531       -2.9100    2.1740   -2.2770 hc        1 PH1      0.044700
    132 H532       -2.2330    0.8760   -3.3420 hc        1 PH1      0.044700
    133 H533       -1.1150    2.0650   -2.5400 hc        1 PH1      0.044700
@<TRIPOS>BOND
     1    1    2 1   
     2    1   43 1   
     3    2    3 1   
     4    2   46 1   
     5    2   47 1   
     6    3    4 1   
     7    3   48 1   
     8    3   49 1   
     9    4    5 1   
    10    4    6 1   
    11    4   50 1   
    12    5   51 1   
    13    5   52 1   
    14    5   53 1   
    15    6    7 1   
    16    6   54 1   
    17    6   55 1   
    18    7    8 1   
    19    7   56 1   
    20    7   57 1   
    21    8    9 1   
    22    8   58 1   
    23    8   59 1   
    24    9   10 1   
    25    9   11 1   
    26    9   60 1   
    27   10   61 1   
    28   10   62 1   
    29   10   63 1   
    30   11   12 1   
    31   11   64 1   
    32   11   65 1   
    33   12   13 1   
    34   12   66 1   
    35   12   67 1   
    36   13   14 1   
    37   13   68 1   
    38   13   69 1   
    39   14   15 1   
    40   14   16 1   
    41   14   70 1   
    42   15   71 1   
    43   15   72 1   
    44   15   73 1   
    45   16   17 1   
    46   16   74 1   
    47   16   75 1   
    48   17   18 1   
    49   17   76 1   
    50   17   77 1   
    51   18   19 1   
    52   18   78 1   
    53   18   79 1   
    54   19   20 1   
    55   19   21 1   
    56   19   80 1   
    57   20   81 1   
    58   20   82 1   
    59   20   83 1   
    60   21   84 1   
    61   21   85 1   
    62   21   86 1   
    63   22   23 1   
    64   22   44 1   
    65   23   24 1   
    66   23   87 1   
    67   23   88 1   
    68   24   25 1   
    69   24   89 1   
    70   24   90 1   
    71   25   26 1   
    72   25   27 1   
    73   25   91 1   
    74   26   92 1   
    75   26   93 1   
    76   26   94 1   
    77   27   28 1   
    78   27   95 1   
    79   27   96 1   
    80   28   29 1   
    81   28   97 1   
    82   28   98 1   
    83   29   30 1   
    84   29   99 1   
    85   29  100 1   
    86   30   31 1   
    87   30   32 1   
    88   30  101 1   
    89   31  102 1   
    90   31  103 1   
    91   31  104 1   
    92   32   33 1   
    93   32  105 1   
    94   32  106 1   
    95   33   34 1   
    96   33  107 1   
    97   33  108 1   
    98   34   35 1   
    99   34  109 1   
   100   34  110 1   
   101   35   36 1   
   102   35   37 1   
   103   35  111 1   
   104   36  112 1   
   105   36  113 1   
   106   36  114 1   
   107   37   38 1   
   108   37  115 1   
   109   37  116 1   
   110   38   39 1   
   111   38  117 1   
   112   38  118 1   
   113   39   40 1   
   114   39  119 1   
   115   39  120 1   
   116   40   41 1   
   117   40   42 1   
   118   40  121 1   
   119   41  122 1   
   120   41  123 1   
   121   41  124 1   
   122   42  125 1   
   123   42  126 1   
   124   42  127 1   
   125   43   44 1   
   126   43  128 1   
   127   43  129 1   
   128   44   45 1   
   129   44  130 1   
   130   45  131 1   
   131   45  132 1   
   132   45  133 1   
@<TRIPOS>SUBSTRUCTURE
     1 PH1         1 TEMP              0 ****  ****    0 ROOT
