@<TRIPOS>MOLECULE
PH2
   23    24     1     0     0
SMALL
bcc


@<TRIPOS>ATOM
      1 N1          0.0050   -0.2440   -0.0910 ne        1 PH2     -0.459300
      2 C2          1.2940   -0.0820   -0.0590 c2        1 PH2      0.284300
      3 C3          2.1010    0.1980    1.1940 c3        1 PH2      0.158500
      4 N4          1.3120    0.2400    2.3990 nh        1 PH2     -0.751000
      5 N5         -0.7620    0.2350    3.5540 nc        1 PH2     -0.742300
      6 C6         -2.1030    0.0470    3.5120 cd        1 PH2      0.723800
      7 N6         -2.8110    0.0490    4.7250 nh        1 PH2     -0.906800
      8 N7         -2.8110   -0.1970    2.3330 n         1 PH2     -0.511400
      9 C8         -2.1460   -0.3210    1.0790 c         1 PH2      0.751700
     10 O8         -2.8710   -0.5560    0.1010 o         1 PH2     -0.605500
     11 C9         -0.6980   -0.1470    1.1090 cc        1 PH2     -0.190600
     12 C10        -0.0590    0.1110    2.3580 cd        1 PH2      0.454600
     13 C11         2.1310   -0.1730   -1.3120 c3        1 PH2      0.114100
     14 O4          1.6890    0.6820   -2.3420 oh        1 PH2     -0.594800
     15 H31         2.8850   -0.6080    1.3110 h1        1 PH2      0.047700
     16 H32         2.6380    1.1850    1.0660 h1        1 PH2      0.047700
     17 HN4         1.7700    0.4720    3.2490 hn        1 PH2      0.454800
     18 HN61       -3.7640    0.3270    4.6910 hn        1 PH2      0.431300
     19 HN62       -2.3030    0.3480    5.5270 hn        1 PH2      0.431300
     20 HN7        -3.7950   -0.3600    2.3470 hn        1 PH2      0.334500
     21 H111        2.1460   -1.2400   -1.6710 h1        1 PH2      0.052700
     22 H112        3.1820    0.1650   -1.0990 h1        1 PH2      0.052700
     23 HO4         0.7720    0.4540   -2.5460 ho        1 PH2      0.421000
@<TRIPOS>BOND
     1    1    2 2
     2    1   11 1
     3    2    3 1
     4    2   13 1
     5    3    4 1
     6    3   15 1
     7    3   16 1
     8    4   12 1
     9    4   17 1
    10    5    6 2
    11    5   12 1
    12    6    7 1
    13    6    8 1
    14    7   18 1
    15    7   19 1
    16    8    9 1
    17    8   20 1
    18    9   10 2
    19    9   11 1
    20   11   12 2
    21   13   14 1
    22   13   21 1
    23   13   22 1
    24   14   23 1
@<TRIPOS>SUBSTRUCTURE
     1 PH2         1 TEMP              0 ****  ****    0 ROOT
