@<TRIPOS>MOLECULE
molecule
   20    20     1     0     0
SMALL
bcc


@<TRIPOS>ATOM
      1 Cl           0.0000     0.0000     0.0000 cl         1 PH3      -0.104400
      2 C1           4.5010     0.0000     0.0000 ca         1 PH3       0.159600
      3 C2           3.8070     0.0000     1.2020 ca         1 PH3      -0.172500
      4 C3           2.4260    -0.0000     1.1980 ca         1 PH3      -0.092500
      5 C4           1.7360    -0.0010     0.0000 ca         1 PH3       0.001400
      6 C5           2.4260     0.0010    -1.1980 ca         1 PH3      -0.092500
      7 C6           3.8080     0.0070    -1.2020 ca         1 PH3      -0.172500
      8 CZ           6.5900    -0.7760    -0.9030 c2         1 PH3       0.873100
      9 NH1          5.9080    -1.6400    -1.7260 nu         1 PH3      -0.759700
     10 NH2          7.8880    -0.6920    -0.9800 n2         1 PH3      -0.936100
     11 OH           6.6160    -2.4400    -2.6550 oh         1 PH3      -0.333300
     12 H2           4.3470    -0.0030     2.1410 ha         1 PH3       0.152000
     13 H3           1.8820    -0.0000     2.1350 ha         1 PH3       0.148500
     14 H5           1.8830     0.0070    -2.1360 ha         1 PH3       0.148500
     15 H6           4.3480     0.0080    -2.1400 ha         1 PH3       0.152000
     16 HNE          6.4010     0.5230     0.6920 hn         1 PH3       0.483800
     17 HN1          4.9170    -1.7450    -1.6290 hn         1 PH3       0.449800
     18 HN2          8.3890    -1.2570    -1.6370 hn         1 PH3       0.427400
     19 HO           6.0360    -3.0880    -3.0190 ho         1 PH3       0.411000
     20 NE           5.9010     0.0000    -0.0000 nu         1 PH3      -0.743600
@<TRIPOS>BOND
     1     1     5 1
     2     2     3 ar
     3     2     7 ar
     4     2    20 1
     5     3     4 ar
     6     3    12 1
     7     4     5 ar
     8     4    13 1
     9     5     6 ar
    10     6     7 ar
    11     6    14 1
    12     7    15 1
    13    20     8 1
    14    20    16 1
    15     8     9 1
    16     8    10 2
    17     9    11 1
    18     9    17 1
    19    10    18 1
    20    11    19 1
@<TRIPOS>SUBSTRUCTURE
     1 PH3         1 TEMP              0 ****  ****    0 ROOT
