@<TRIPOS>MOLECULE
PH4
   27    26     1     0     0
SMALL
bcc


@<TRIPOS>ATOM
      1 N3           0.0000     0.0000     0.0000 n          1 PH4      -0.080300
      2 C4           1.4650     0.0000     0.0000 c3         1 PH4       0.052000
      3 C5           1.9750     0.0000     1.4430 c3         1 PH4      -0.085400
      4 C6           3.5050    -0.0010     1.4430 c3         1 PH4       0.294400
      5 O62          5.7150     0.1320     4.7630 o          1 PH4      -0.774833
      6 P6           5.5470    -0.0010     3.1670 p5         1 PH4       0.690900
      7 O63          6.2140     1.1420     2.5040 o          1 PH4      -0.774833
      8 O61          6.2180    -1.3760     2.6690 o          1 PH4      -0.774833
      9 O6           3.9810     0.0000     2.7910 os         1 PH4      -0.473200
     10 O3          -0.7080    -1.1840    -0.3170 oh         1 PH4      -0.460100
     11 C2          -0.6740     1.1280     0.3070 c          1 PH4       0.560100
     12 O2          -0.0670     2.1410     0.5780 o          1 PH4      -0.614100
     13 C1          -2.1800     1.1260     0.3130 c3         1 PH4       0.232400
     14 O1          -2.6560     2.4260     0.6670 os         1 PH4      -0.447200
     15 P1          -4.2220     2.7890     0.7710 p5         1 PH4       0.689900
     16 O12         -4.8840     1.8500     1.7040 o          1 PH4      -0.771833
     17 O13         -4.3880     4.2950     1.3150 o          1 PH4      -0.771833
     18 O11         -4.8990     2.6650    -0.6840 o          1 PH4      -0.771833
     19 H4           1.8260     0.8840    -0.5110 h1         1 PH4       0.002200
     20 H4A          1.8260    -0.8850    -0.5110 h1         1 PH4       0.002200
     21 H5           1.6140    -0.8840     1.9540 hc         1 PH4       0.026200
     22 H5A          1.6140     0.8850     1.9540 hc         1 PH4       0.026200
     23 H6           3.8660    -0.8860     0.9330 h1         1 PH4      -0.043800
     24 H6A          3.8660     0.8830     0.9310 h1         1 PH4      -0.043800
     25 HO3         -0.5730    -1.3980    -1.2250 ho         1 PH4       0.353000
     26 H1          -2.5450     0.8640    -0.6730 h1         1 PH4      -0.020800
     27 H1A         -2.5370     0.4020     1.0350 h1         1 PH4      -0.020800
@<TRIPOS>BOND
     1     1     2 1   
     2     1    10 1   
     3     1    11 1   
     4     2     3 1   
     5     2    19 1   
     6     2    20 1   
     7     3     4 1   
     8     3    21 1   
     9     3    22 1   
    10     4     9 1   
    11     4    23 1   
    12     4    24 1   
    13     5     6 1   
    14     6     7 1   
    15     6     8 1   
    16     6     9 1   
    17    10    25 1   
    18    11    12 2   
    19    11    13 1   
    20    13    14 1   
    21    13    26 1   
    22    13    27 1   
    23    14    15 1   
    24    15    16 1   
    25    15    17 1   
    26    15    18 1   
@<TRIPOS>SUBSTRUCTURE
     1 PH4         1 TEMP              0 ****  ****    0 ROOT
