@<TRIPOS>MOLECULE
molecule
   55    56     1     0     0
SMALL
bcc


@<TRIPOS>ATOM
      1 C1           1.5070     0.0000     0.0000 c          1 PH5       0.844600
      2 O1A          2.1110     1.0430    -0.0890 o          1 PH5      -0.822300
      3 O1B          2.1780    -1.1570     0.0980 o          1 PH5      -0.822300
      4 C2           0.0000     0.0000     0.0000 c3         1 PH5       0.224600
      5 O2          -0.4750     0.0000     1.3480 os         1 PH5      -0.393600
      6 C3          -0.5100     1.2510    -0.7190 c3         1 PH5      -0.101400
      7 C4           0.0320     1.2590    -2.1520 c3         1 PH5       0.130100
      8 O4          -0.5520     2.3390    -2.8830 oh         1 PH5      -0.599800
      9 C5          -0.3310    -0.0720    -2.8220 c3         1 PH5       0.080700
     10 N5           0.3070    -0.1490    -4.1380 ns         1 PH5      -0.576900
     11 C10         -0.2940     0.4010    -5.2110 c          1 PH5       0.651100
     12 O10         -1.3630     0.9600    -5.0880 o          1 PH5      -0.592100
     13 C11          0.3630     0.3210    -6.5660 c3         1 PH5      -0.163400
     14 C12         -0.5200     1.0190    -7.6020 c3         1 PH5      -0.074100
     15 C6           0.1620    -1.2240    -1.9440 c3         1 PH5       0.141100
     16 O6          -0.4730    -1.1670    -0.6680 os         1 PH5      -0.408600
     17 C7          -0.1680    -2.5570    -2.6190 c3         1 PH5       0.164100
     18 O7          -1.5700    -2.6180    -2.8910 oh         1 PH5      -0.590800
     19 C8           0.2210    -3.7090    -1.6910 c3         1 PH5       0.138100
     20 O8           1.6220    -3.6480    -1.4180 oh         1 PH5      -0.569800
     21 C9          -0.1110    -5.0420    -2.3640 c3         1 PH5       0.089400
     22 O9           0.1440    -6.1130    -1.4540 oh         1 PH5      -0.611800
     23 CB          -0.0800    -1.2460     1.9260 c3         1 PH5       0.158700
     24 CG          -0.6620    -1.3650     3.3100 ca         1 PH5      -0.064300
     25 CD1         -1.9060    -1.9400     3.4900 ca         1 PH5      -0.109500
     26 CD2          0.0500    -0.9040     4.4020 ca         1 PH5      -0.109500
     27 CE1         -2.4400    -2.0490     4.7610 ca         1 PH5      -0.144500
     28 CE2         -0.4850    -1.0090     5.6720 ca         1 PH5      -0.144500
     29 CZ          -1.7300    -1.5830     5.8520 ca         1 PH5      -0.145000
     30 H3C1        -1.5930     1.2390    -0.7420 hc         1 PH5       0.059700
     31 H3C2        -0.1630     2.1350    -0.1970 hc         1 PH5       0.059700
     32 H4           1.1090     1.3700    -2.1310 h1         1 PH5       0.072700
     33 HA          -0.0350     3.1180    -2.7600 ho         1 PH5       0.389000
     34 H5          -1.4070    -0.1380    -2.9310 h1         1 PH5       0.100700
     35 HB           1.1890    -0.6100    -4.2400 hn         1 PH5       0.308500
     36 H111         0.4930    -0.7180    -6.8430 hc         1 PH5       0.049700
     37 H112         1.3290     0.8090    -6.5280 hc         1 PH5       0.049700
     38 H121        -1.4930     0.5430    -7.6260 hc         1 PH5       0.037367
     39 H122        -0.0580     0.9440    -8.5790 hc         1 PH5       0.037367
     40 H123        -0.6340     2.0620    -7.3360 hc         1 PH5       0.037367
     41 H6           1.2340    -1.1390    -1.8130 h1         1 PH5       0.124700
     42 H7           0.3840    -2.6380    -3.5470 h1         1 PH5       0.029700
     43 HC          -1.7110    -3.0410    -3.7220 ho         1 PH5       0.384000
     44 H8          -0.3310    -3.6270    -0.7620 h1         1 PH5       0.081700
     45 HD           1.8780    -4.4060    -0.9190 ho         1 PH5       0.410000
     46 H9C1        -1.1550    -5.0510    -2.6500 h1         1 PH5       0.019200
     47 H9C2         0.5060    -5.1640    -3.2470 h1         1 PH5       0.019200
     48 H9          -0.0810    -6.9330    -1.8620 ho         1 PH5       0.393000
     49 HBC1         1.0010    -1.2910     1.9830 h1         1 PH5       0.072200
     50 HBC2        -0.4430    -2.0600     1.3100 h1         1 PH5       0.072200
     51 HD1         -2.4620    -2.3060     2.6350 ha         1 PH5       0.139000
     52 HD2          1.0260    -0.4540     4.2610 ha         1 PH5       0.139000
     53 HE1         -3.4150    -2.4990     4.9010 ha         1 PH5       0.114500
     54 HE2          0.0720    -0.6460     6.5260 ha         1 PH5       0.114500
     55 HZ          -2.1490    -1.6670     6.8470 ha         1 PH5       0.110000
@<TRIPOS>BOND
     1     1     2 1
     2     1     3 1
     3     1     4 1
     4     4     5 1
     5     4     6 1
     6     4    16 1
     7     5    23 1
     8     6     7 1
     9     6    30 1
    10     6    31 1
    11     7     8 1
    12     7     9 1
    13     7    32 1
    14     8    33 1
    15     9    10 1
    16     9    15 1
    17     9    34 1
    18    10    11 1
    19    10    35 1
    20    11    12 2
    21    11    13 1
    22    13    14 1
    23    13    36 1
    24    13    37 1
    25    14    38 1
    26    14    39 1
    27    14    40 1
    28    15    16 1
    29    15    17 1
    30    15    41 1
    31    17    18 1
    32    17    19 1
    33    17    42 1
    34    18    43 1
    35    19    20 1
    36    19    21 1
    37    19    44 1
    38    20    45 1
    39    21    22 1
    40    21    46 1
    41    21    47 1
    42    22    48 1
    43    23    24 1
    44    23    49 1
    45    23    50 1
    46    24    25 ar
    47    24    26 ar
    48    25    27 ar
    49    25    51 1
    50    26    28 ar
    51    26    52 1
    52    27    29 ar
    53    27    53 1
    54    28    29 ar
    55    28    54 1
    56    29    55 1
@<TRIPOS>SUBSTRUCTURE
     1 PH5         1 TEMP              0 ****  ****    0 ROOT
