@<TRIPOS>MOLECULE
PH7
   43    45     1     0     0
SMALL
bcc


@<TRIPOS>ATOM
      1 C1           0.0000     0.0000     0.0000 ce         1 PH7      -0.112200
      2 C2           1.3580     0.0000     0.0000 cf         1 PH7      -0.132600
      3 N            2.2360     0.0000     1.1790 ns         1 PH7      -0.055100
      4 C            2.5730     1.1220     1.8770 c          1 PH7       0.585700
      5 O            2.1450     2.2430     1.6070 o          1 PH7      -0.653100
      6 CB2         -0.9490     0.0670     1.1250 ca         1 PH7      -0.035800
      7 CB3         -2.3360    -0.1450     0.9650 ca         1 PH7      -0.079000
      8 CB6         -2.7150     0.4250     3.3200 ca         1 PH7       0.111100
      9 CB1         -0.4890     0.4390     2.3770 ca         1 PH7      -0.079000
     10 CB5         -1.3380     0.6150     3.4550 ca         1 PH7      -0.159500
     11 CA1         -3.1190     0.7460     5.7130 ca         1 PH7       0.147100
     12 CA2         -3.0100     2.0520     6.2320 ca         1 PH7       0.002100
     13 CA3         -2.5950     2.2610     7.5760 ca         1 PH7      -0.072000
     14 CA4         -2.3340     1.1570     8.4120 ca         1 PH7      -0.115000
     15 CA5         -2.4780    -0.1570     7.9210 ca         1 PH7      -0.088000
     16 CA6         -2.8560    -0.3510     6.5800 ca         1 PH7      -0.112000
     17 CD2          2.0510    -0.0920    -1.3150 c          1 PH7       0.989800
     18 OC1          1.3560     0.0060    -2.3480 o          1 PH7      -0.875800
     19 OC2          3.2780    -0.3300    -1.3630 o          1 PH7      -0.875800
     20 CC1          3.4770     0.8770     2.9960 ca         1 PH7      -0.140600
     21 CC2          4.3020     1.9190     3.4650 ca         1 PH7      -0.059500
     22 CC3          5.0150     1.7550     4.6660 ca         1 PH7      -0.121000
     23 CC4          4.8990     0.5440     5.3980 ca         1 PH7      -0.103000
     24 CC5          4.1190    -0.5260     4.9010 ca         1 PH7      -0.121000
     25 CC6          3.4250    -0.3670     3.6880 ca         1 PH7      -0.059500
     26 CB4         -3.2150     0.0760     2.0580 ca         1 PH7      -0.159500
     27 OAB         -3.5700     0.5510     4.3960 os         1 PH7      -0.239200
     28 BrA2        -3.5790     3.4870     5.1800 br         1 PH7      -0.093100
     29 H1          -0.4740    -0.0040    -0.9740 ha         1 PH7       0.140000
     30 HN           2.6090    -0.8760     1.4880 hn         1 PH7       0.168500
     31 HB3         -2.7340    -0.4150    -0.0060 ha         1 PH7       0.116500
     32 HB1          0.5740     0.5950     2.5180 ha         1 PH7       0.116500
     33 HB5         -0.9290     0.8960     4.4180 ha         1 PH7       0.105000
     34 HA3         -2.4980     3.2680     7.9640 ha         1 PH7       0.114000
     35 HA4         -2.0300     1.3180     9.4390 ha         1 PH7       0.102000
     36 HA5         -2.2800    -1.0070     8.5630 ha         1 PH7       0.104000
     37 HA6         -2.9520    -1.3610     6.1980 ha         1 PH7       0.115000
     38 HC2          4.3870     2.8410     2.9030 ha         1 PH7       0.117000
     39 HC3          5.6330     2.5600     5.0440 ha         1 PH7       0.097500
     40 HC4          5.4430     0.4250     6.3270 ha         1 PH7       0.091000
     41 HC5          4.0590    -1.4590     5.4480 ha         1 PH7       0.097500
     42 HC6          2.8240    -1.1800     3.2970 ha         1 PH7       0.117000
     43 HB4         -4.2790    -0.0830     1.9300 ha         1 PH7       0.105000
@<TRIPOS>BOND
     1     1     2 2   
     2     1     6 1   
     3     1    29 1   
     4     2     3 1   
     5     2    17 1   
     6     3     4 1   
     7     3    30 1   
     8     4     5 2   
     9     4    20 1   
    10     6     7 ar  
    11     6     9 ar  
    12     7    26 ar  
    13     7    31 1   
    14     8    10 ar  
    15     8    26 ar  
    16     8    27 1   
    17     9    10 ar  
    18     9    32 1   
    19    10    33 1   
    20    11    12 ar  
    21    11    16 ar  
    22    11    27 1   
    23    12    13 ar  
    24    12    28 1   
    25    13    14 ar  
    26    13    34 1   
    27    14    15 ar  
    28    14    35 1   
    29    15    16 ar  
    30    15    36 1   
    31    16    37 1   
    32    17    18 1   
    33    17    19 1   
    34    20    21 ar  
    35    20    25 ar  
    36    21    22 ar  
    37    21    38 1   
    38    22    23 ar  
    39    22    39 1   
    40    23    24 ar  
    41    23    40 1   
    42    24    25 ar  
    43    24    41 1   
    44    25    42 1   
    45    26    43 1   
@<TRIPOS>SUBSTRUCTURE
     1 PH7         1 TEMP              0 ****  ****    0 ROOT
