@<TRIPOS>MOLECULE
molecule
   59    63     1     0     0
SMALL
bcc


@<TRIPOS>ATOM
      1 CB2          0.0000     0.0000     0.0000 ca         1 PH9      -0.047300
      2 CB3          1.4300     0.0000     0.0000 ca         1 PH9      -0.109000
      3 CB4          2.1610     0.0000     1.2270 ca         1 PH9      -0.171000
      4 CB6          1.4650    -0.0100     2.4630 ca         1 PH9       0.101100
      5 CB5          0.0350    -0.0210     2.4220 ca         1 PH9      -0.171000
      6 CB1         -0.6580    -0.0160     1.2220 ca         1 PH9      -0.109000
      7 C2          -2.1110     0.0300    -1.5390 c3         1 PH9      -0.085300
      8 C1          -0.7840    -0.0080    -1.2580 c3         1 PH9      -0.019100
      9 N           -3.1760     0.1220    -0.6050 ns         1 PH9      -0.499900
     10 C           -3.6490    -0.8980     0.1600 c          1 PH9       0.664100
     11 CO2         -2.5340     0.0050    -2.9800 c          1 PH9       0.941600
     12 O           -3.2110    -2.0660     0.1480 o          1 PH9      -0.635100
     13 OC1         -1.6310    -0.2400    -3.8170 o          1 PH9      -0.828800
     14 OC2         -3.7240     0.2350    -3.2960 o          1 PH9      -0.828800
     15 OAB          2.1630    -0.0250     3.6590 os         1 PH9      -0.272200
     16 CA1          1.5640    -0.0850     4.9150 ca         1 PH9       0.148100
     17 CA2          1.5230    -1.3510     5.5980 ca         1 PH9      -0.025900
     18 CA3          0.9070    -1.4430     6.9000 ca         1 PH9      -0.097000
     19 CA4          0.3230    -0.2810     7.5120 ca         1 PH9      -0.144000
     20 CA5          0.3550     0.9830     6.8420 ca         1 PH9      -0.115000
     21 CA6          0.9670     1.0720     5.5550 ca         1 PH9      -0.141000
     22 BrA2         2.3130    -2.8720     4.7420 br         1 PH9      -0.078100
     23 CC4         -5.9570    -0.1030     3.8560 c3         1 PH9      -0.026067
     24 CC3         -6.4860    -1.2320     2.9070 c3         1 PH9      -0.164700
     25 CC5         -5.4890     1.1320     3.0000 c3         1 PH9      -0.164700
     26 CC2         -5.3230    -1.6760     1.9660 c3         1 PH9      -0.120400
     27 CC6         -4.3330     0.6710     2.0550 c3         1 PH9      -0.120400
     28 CC1         -4.8040    -0.4770     1.0870 c3         1 PH9      -0.101000
     29 C10         -6.6840     1.6700     2.1230 c3         1 PH9      -0.026067
     30 CC8         -7.1970     0.5360     1.1800 c3         1 PH9      -0.164700
     31 CC9         -7.6710    -0.6820     2.0410 c3         1 PH9      -0.026067
     32 CC7         -6.0200     0.0840     0.2570 c3         1 PH9      -0.120400
     33 HB3          1.9650     0.0100    -0.9420 ha         1 PH9       0.143000
     34 HB4          3.2450     0.0040     1.2140 ha         1 PH9       0.127500
     35 HB5         -0.5200    -0.0310     3.3530 ha         1 PH9       0.127500
     36 HB1         -1.7410    -0.0200     1.2380 ha         1 PH9       0.143000
     37 H2          -2.1460    -1.0500    -1.4730 h1         1 PH9       0.055700
     38 H11         -0.3790     0.8260    -1.8180 hc         1 PH9       0.060700
     39 H12         -0.4400    -0.9000    -1.7690 hc         1 PH9       0.060700
     40 HN          -3.6180     1.0150    -0.5010 hn         1 PH9       0.292500
     41 HA3          0.8760    -2.3960     7.4150 ha         1 PH9       0.144000
     42 HA4         -0.1380    -0.3600     8.4890 ha         1 PH9       0.134000
     43 HA5         -0.0840     1.8590     7.3020 ha         1 PH9       0.138000
     44 HA6          0.9920     2.0290     5.0470 ha         1 PH9       0.148000
     45 HC3         -6.1210    -2.2510     2.8940 hc         1 PH9       0.120033
     46 HC5         -4.5030     1.5780     3.0510 hc         1 PH9       0.120033
     47 HC21        -6.2610    -2.1180     1.6510 hc         1 PH9       0.070033
     48 HC22        -4.5570    -2.2970     2.4130 hc         1 PH9       0.070033
     49 HC61        -4.6630     1.6690     1.7950 hc         1 PH9       0.070033
     50 HC62        -3.3660     0.5260     2.5210 hc         1 PH9       0.070033
     51 H101        -6.3450     2.5090     1.5270 hc         1 PH9       0.033700
     52 H102        -7.4910     1.9910     2.7710 hc         1 PH9       0.033700
     53 HC8         -8.0180     0.9020     0.5760 hc         1 PH9       0.120033
     54 HC91        -8.4760    -0.3670     2.6940 hc         1 PH9       0.033700
     55 HC92        -8.0290    -1.4670     1.3850 hc         1 PH9       0.033700
     56 HC71        -5.6850     0.9330    -0.3270 hc         1 PH9       0.070033
     57 HC72        -6.3750    -0.6880    -0.4140 hc         1 PH9       0.070033
     58 HC41        -6.7500     0.2040     4.5280 hc         1 PH9       0.033700
     59 HC42        -5.1210    -0.4790     4.4330 hc         1 PH9       0.033700
@<TRIPOS>BOND
     1     1     2 ar
     2     1     6 ar
     3     1     8 1
     4     2     3 ar
     5     2    33 1
     6     3     4 ar
     7     3    34 1
     8     4     5 ar
     9     4    15 1
    10     5     6 ar
    11     5    35 1
    12     6    36 1
    13     7     8 1
    14     7     9 1
    15     7    11 1
    16     7    37 1
    17     8    38 1
    18     8    39 1
    19     9    10 1
    20     9    40 1
    21    10    12 2
    22    10    28 1
    23    11    13 1
    24    11    14 1
    25    15    16 1
    26    16    17 ar
    27    16    21 ar
    28    17    18 ar
    29    17    22 1
    30    18    19 ar
    31    18    41 1
    32    19    20 ar
    33    19    42 1
    34    20    21 ar
    35    20    43 1
    36    21    44 1
    37    23    24 1
    38    23    25 1
    39    23    58 1
    40    23    59 1
    41    24    27 1
    42    24    31 1
    43    24    45 1
    44    25    26 1
    45    25    29 1
    46    25    46 1
    47    26    28 1
    48    26    47 1
    49    26    48 1
    50    27    28 1
    51    27    49 1
    52    27    50 1
    53    28    32 1
    54    29    30 1
    55    29    51 1
    56    29    52 1
    57    30    31 1
    58    30    32 1
    59    30    53 1
    60    31    54 1
    61    31    55 1
    62    32    56 1
    63    32    57 1
@<TRIPOS>SUBSTRUCTURE
     1 PH9         1 TEMP              0 ****  ****    0 ROOT
