@<TRIPOS>MOLECULE
molecule
   15    15     1     0     0
SMALL
bcc


@<TRIPOS>ATOM
      1 C1'          0.0000     0.0000     0.0000 c          1 PHB       0.882200
      2 O1'          1.2140     0.0000     0.0000 o          1 PHB      -0.837800
      3 O2'         -0.6750     0.0000     1.1660 o          1 PHB      -0.837800
      4 C1          -0.7380     0.0050    -1.2780 ca         1 PHB      -0.107600
      5 C2          -0.0400     0.0110    -2.4890 ca         1 PHB      -0.092500
      6 C3          -0.7310     0.0170    -3.6800 ca         1 PHB      -0.182000
      7 C4          -2.1220     0.0170    -3.6780 ca         1 PHB       0.062100
      8 C5          -2.8190     0.0110    -2.4750 ca         1 PHB      -0.182000
      9 C6          -2.1350    -0.0000    -1.2810 ca         1 PHB      -0.092500
     10 O4          -2.8000     0.0230    -4.8540 oh         1 PHB      -0.538100
     11 H2           1.0430     0.0110    -2.4900 ha         1 PHB       0.151500
     12 H3          -0.1920     0.0220    -4.6190 ha         1 PHB       0.113500
     13 H5          -3.9030     0.0090    -2.4780 ha         1 PHB       0.113500
     14 H6          -2.6800    -0.0050    -0.3440 ha         1 PHB       0.151500
     15 HO4         -2.9570     0.9130    -5.1220 ho         1 PHB       0.397000
@<TRIPOS>BOND
     1     1     2 1
     2     1     3 1
     3     1     4 1
     4     4     5 ar
     5     4     9 ar
     6     5     6 ar
     7     5    11 1
     8     6     7 ar
     9     6    12 1
    10     7     8 ar
    11     7    10 1
    12     8     9 ar
    13     8    13 1
    14     9    14 1
    15    10    15 1
@<TRIPOS>SUBSTRUCTURE
     1 PHB         1 TEMP              0 ****  ****    0 ROOT
