@<TRIPOS>MOLECULE
PHB
   15    15     1     0     0
SMALL
bcc


@<TRIPOS>ATOM
      1 C1'         0.0220   -0.0420    0.0490 c         1 PHB      0.910200
      2 O1'         1.2830   -0.1280    0.0270 o         1 PHB     -0.834300
      3 O2'        -0.6670   -0.0040    1.1080 o         1 PHB     -0.834300
      4 C1         -0.7120    0.0200   -1.2820 ca        1 PHB     -0.152600
      5 C2         -0.0010   -0.0200   -2.4850 ca        1 PHB     -0.077500
      6 C3         -0.6610    0.0360   -3.7110 ca        1 PHB     -0.211500
      7 C4         -2.0590    0.1340   -3.7210 ca        1 PHB      0.082100
      8 C5         -2.7900    0.1750   -2.5260 ca        1 PHB     -0.211500
      9 C6         -2.1060    0.1180   -1.3130 ca        1 PHB     -0.077500
     10 O4         -2.6730    0.1870   -4.9620 oh        1 PHB     -0.525100
     11 H2          1.0980   -0.0970   -2.4380 ha        1 PHB      0.152500
     12 H3         -0.1110    0.0050   -4.6590 ha        1 PHB      0.114000
     13 H5         -3.8840    0.2520   -2.5500 ha        1 PHB      0.114000
     14 H6         -2.6490    0.1480   -0.3540 ha        1 PHB      0.152500
     15 HO4        -3.6240    0.2520   -4.8060 ho        1 PHB      0.399000
@<TRIPOS>BOND
     1    1    2 1   
     2    1    3 1   
     3    1    4 1   
     4    4    5 ar  
     5    4    9 ar  
     6    5    6 ar  
     7    5   11 1   
     8    6    7 ar  
     9    6   12 1   
    10    7    8 ar  
    11    7   10 1   
    12    8    9 ar  
    13    8   13 1   
    14    9   14 1   
    15   10   15 1   
@<TRIPOS>SUBSTRUCTURE
     1 PHB         1 TEMP              0 ****  ****    0 ROOT
