@<TRIPOS>MOLECULE
molecule
   25    25     1     0     0
SMALL
bcc


@<TRIPOS>ATOM
      1 N            0.0000     0.0000     0.0000 n          1 PHC      -0.496800
      2 C           -0.6750     0.9520    -0.6710 c          1 PHC       0.660900
      3 O           -1.8870     0.9520    -0.6710 o          1 PHC      -0.611100
      4 CA          -0.7310    -1.0380     0.7310 c3         1 PHC       0.093300
      5 CB           1.4640     0.0000     0.0000 c3         1 PHC       0.158000
      6 CG2          1.9750     0.0000     1.4430 c3         1 PHC      -0.106100
      7 CG           1.9670    -1.2290    -0.7110 ca         1 PHC      -0.105300
      8 CD1          2.6960    -1.1020    -1.8780 ca         1 PHC      -0.117500
      9 CD2          1.7070    -2.4820    -0.1910 ca         1 PHC      -0.117500
     10 CE1          3.1580    -2.2300    -2.5300 ca         1 PHC      -0.126000
     11 CE2          2.1650    -3.6100    -0.8460 ca         1 PHC      -0.126000
     12 CZ           2.8920    -3.4840    -2.0140 ca         1 PHC      -0.122000
     13 H           -0.1350     1.7210    -1.2090 h5         1 PHC       0.021200
     14 HA1         -1.6280    -0.6120     1.1630 h1         1 PHC       0.045033
     15 HA2         -1.0020    -1.8360     0.0510 h1         1 PHC       0.045033
     16 HA3         -0.1030    -1.4340     1.5210 h1         1 PHC       0.045033
     17 HB           1.8250     0.8850    -0.5100 h1         1 PHC       0.063700
     18 HG21         3.0260     0.2610     1.4540 hc         1 PHC       0.046367
     19 HG22         1.4170     0.7250     2.0230 hc         1 PHC       0.046367
     20 HG23         1.8430    -0.9860     1.8730 hc         1 PHC       0.046367
     21 HD1          2.9040    -0.1190    -2.2820 ha         1 PHC       0.131000
     22 HD2          1.1360    -2.5810     0.7240 ha         1 PHC       0.131000
     23 HE1          3.7280    -2.1300    -3.4460 ha         1 PHC       0.131500
     24 HE2          1.9590    -4.5940    -0.4410 ha         1 PHC       0.131500
     25 HZ           3.2530    -4.3670    -2.5270 ha         1 PHC       0.131000
@<TRIPOS>BOND
     1     1     2 1
     2     1     4 1
     3     1     5 1
     4     2     3 2
     5     2    13 1
     6     4    14 1
     7     4    15 1
     8     4    16 1
     9     5     6 1
    10     5     7 1
    11     5    17 1
    12     6    18 1
    13     6    19 1
    14     6    20 1
    15     7     8 ar
    16     7     9 ar
    17     8    10 ar
    18     8    21 1
    19     9    11 ar
    20     9    22 1
    21    10    12 ar
    22    10    23 1
    23    11    12 ar
    24    11    24 1
    25    12    25 1
@<TRIPOS>SUBSTRUCTURE
     1 PHC         1 TEMP              0 ****  ****    0 ROOT
