@<TRIPOS>MOLECULE
molecule
   16    17     1     0     0
SMALL
bcc


@<TRIPOS>ATOM
      1 C1           0.0000     0.0000     0.0000 ca         1 PHH       0.043400
      2 C2           1.3750     0.0000     0.0000 ca         1 PHH      -0.091300
      3 C3           2.4100     0.0000     1.0980 c3         1 PHH       0.183700
      4 O4           3.7060     0.0070     0.4380 os         1 PHH      -0.370900
      5 C5           3.5210     0.0110    -0.8930 c          1 PHH       0.746200
      6 C6           2.0810     0.0070    -1.2060 ca         1 PHH      -0.179600
      7 C7           1.3780     0.0080    -2.4130 ca         1 PHH       0.106400
      8 Cl7          2.2370     0.0170    -3.9210 cl         1 PHH      -0.029400
      9 C8          -0.0030     0.0030    -2.4030 ca         1 PHH       0.020400
     10 Cl8         -0.8790     0.0060    -3.9020 cl         1 PHH      -0.040400
     11 C9          -0.6920    -0.0030    -1.2020 ca         1 PHH       0.064400
     12 Cl9         -2.4280    -0.0090    -1.1990 cl         1 PHH      -0.038400
     13 Cl10        -0.8690     0.0020     1.5030 cl         1 PHH      -0.061400
     14 O11          4.4110     0.0170    -1.7190 o          1 PHH      -0.535500
     15 H31          2.3080    -0.8920     1.7040 h1         1 PHH       0.090700
     16 H32          2.3010     0.8870     1.7100 h1         1 PHH       0.090700
@<TRIPOS>BOND
     1     1     2 ar
     2     1    11 ar
     3     1    13 1
     4     2     3 1
     5     2     6 ar
     6     3     4 1
     7     3    15 1
     8     3    16 1
     9     4     5 1
    10     5     6 1
    11     5    14 2
    12     6     7 ar
    13     7     8 1
    14     7     9 ar
    15     9    10 1
    16     9    11 ar
    17    11    12 1
@<TRIPOS>SUBSTRUCTURE
     1 PHH         1 TEMP              0 ****  ****    0 ROOT
