@<TRIPOS>MOLECULE
PHH
   16    17     1     0     0
SMALL
bcc


@<TRIPOS>ATOM
      1 C1         -0.0150   -0.0020    0.0200 ca        1 PHH      0.027400
      2 C2          1.3680    0.0020   -0.0200 ca        1 PHH     -0.079300
      3 C3          2.3750    0.0020    1.0930 c3        1 PHH      0.167700
      4 O4          3.6720    0.0070    0.4430 os        1 PHH     -0.406900
      5 C5          3.5100    0.0100   -0.9410 c         1 PHH      0.736200
      6 C6          2.0630    0.0070   -1.2540 ca        1 PHH     -0.159600
      7 C7          1.3820    0.0080   -2.4610 ca        1 PHH      0.094400
      8 CL7         2.2120    0.0150   -3.9270 cl        1 PHH     -0.006400
      9 C8         -0.0340    0.0040   -2.4270 ca        1 PHH      0.003400
     10 CL8        -0.8980    0.0060   -3.8820 cl        1 PHH     -0.024400
     11 C9         -0.7220   -0.0010   -1.2050 ca        1 PHH      0.049400
     12 CL9        -2.4130   -0.0050   -1.1840 cl        1 PHH     -0.021400
     13 CL10       -0.8270   -0.0080    1.5020 cl        1 PHH     -0.036400
     14 O11         4.5340    0.0150   -1.6060 o         1 PHH     -0.528500
     15 H31         2.3270   -0.9230    1.7210 h1        1 PHH      0.091700
     16 H32         2.3210    0.9230    1.7260 h1        1 PHH      0.091700
@<TRIPOS>BOND
     1    1    2 ar  
     2    1   11 ar  
     3    1   13 1   
     4    2    3 1   
     5    2    6 ar  
     6    3    4 1   
     7    3   15 1   
     8    3   16 1   
     9    4    5 1   
    10    5    6 1   
    11    5   14 2   
    12    6    7 ar  
    13    7    8 1   
    14    7    9 ar  
    15    9   10 1   
    16    9   11 ar  
    17   11   12 1   
@<TRIPOS>SUBSTRUCTURE
     1 PHH         1 TEMP              0 ****  ****    0 ROOT
