@<TRIPOS>MOLECULE
PHJ
   20    20     1     0     0
SMALL
bcc


@<TRIPOS>ATOM
      1 N            0.0000     0.0000     0.0000 ns         1 PHJ       0.105900
      2 C            1.3480     0.0000     0.0000 c          1 PHJ       0.597100
      3 OXT          1.9540     0.0000     1.0520 o          1 PHJ      -0.606000
      4 O            2.0220    -0.0010    -1.1650 os         1 PHJ      -0.340400
      5 C1          -0.6990     0.1240     1.2050 ca         1 PHJ      -0.167400
      6 C2          -0.2200     0.9570     2.2060 ca         1 PHJ      -0.083500
      7 C3          -0.9140     1.0770     3.3940 ca         1 PHJ      -0.073500
      8 C4          -2.0840     0.3670     3.5870 ca         1 PHJ      -0.063000
      9 C5          -2.5640    -0.4640     2.5930 ca         1 PHJ      -0.073500
     10 C6          -1.8790    -0.5840     1.3990 ca         1 PHJ      -0.083500
     11 N2           3.3250    -0.0010    -1.1660 nz         1 PHJ       0.241900
     12 H           -0.5000    -0.0580    -0.8650 hn         1 PHJ       0.173500
     13 H2           0.6970     1.5140     2.0550 ha         1 PHJ       0.115500
     14 H3          -0.5400     1.7270     4.1750 ha         1 PHJ       0.119500
     15 H4          -2.6250     0.4610     4.5210 ha         1 PHJ       0.119000
     16 H5          -3.4830    -1.0170     2.7460 ha         1 PHJ       0.119500
     17 H6          -2.2550    -1.2350     0.6200 ha         1 PHJ       0.115500
     18 H21          4.3030    -0.0030    -0.9540 hn         1 PHJ       0.260800
     19 H22          3.1000     0.8170    -1.6970 hn         1 PHJ       0.260800
     20 H23          3.0970    -0.8180    -1.6980 hn         1 PHJ       0.260800
@<TRIPOS>BOND
     1     1     2 1   
     2     1     5 1   
     3     1    12 1   
     4     2     3 2   
     5     2     4 1   
     6     4    11 1   
     7     5     6 ar  
     8     5    10 ar  
     9     6     7 ar  
    10     6    13 1   
    11     7     8 ar  
    12     7    14 1   
    13     8     9 ar  
    14     8    15 1   
    15     9    10 ar  
    16     9    16 1   
    17    10    17 1   
    18    11    18 1   
    19    11    19 1   
    20    11    20 1   
@<TRIPOS>SUBSTRUCTURE
     1 PHJ         1 TEMP              0 ****  ****    0 ROOT
