@<TRIPOS>MOLECULE
molecule
   28    28     1     0     0
SMALL
bcc


@<TRIPOS>ATOM
      1 CB           0.0000     0.0000     0.0000 c3         1 PHK      -0.047100
      2 CG           1.5070     0.0000     0.0000 ca         1 PHK      -0.156300
      3 CD1          2.1980     0.0000     1.1970 ca         1 PHK      -0.134000
      4 CD2          2.1980    -0.0060    -1.1980 ca         1 PHK      -0.134000
      5 CE1          3.5800    -0.0010     1.1970 ca         1 PHK      -0.106500
      6 CE2          3.5800    -0.0010    -1.1970 ca         1 PHK      -0.106500
      7 CZ           4.2710    -0.0010    -0.0010 ca         1 PHK      -0.097000
      8 O           -2.6050     0.7380     0.9780 oh         1 PHK      -0.616800
      9 C1          -2.5450     2.8870    -0.1250 c3         1 PHK      -0.012000
     10 Cl          -4.3240     2.8960    -0.4210 cl         1 PHK      -0.112400
     11 C           -2.0350     1.4450    -0.1260 c3         1 PHK       0.111100
     12 N           -0.1210     2.0990     1.2550 nz         1 PHK      -0.807600
     13 CA          -0.5100     1.4430    -0.0010 c3         1 PHK       0.114500
     14 H6          -0.3610    -0.5100     0.8850 hc         1 PHK       0.095200
     15 H7          -0.3610    -0.5110    -0.8840 hc         1 PHK       0.095200
     16 H1           1.6570     0.0000     2.1360 ha         1 PHK       0.129000
     17 H5           1.6560    -0.0060    -2.1360 ha         1 PHK       0.129000
     18 H2           4.1220    -0.0010     2.1350 ha         1 PHK       0.154000
     19 H4           4.1220    -0.0040    -2.1350 ha         1 PHK       0.154000
     20 H3           5.3540     0.0000    -0.0010 ha         1 PHK       0.157000
     21 H9          -3.4080     0.3250     0.7060 ho         1 PHK       0.457000
     22 H11         -2.3370     3.3350     0.8390 h1         1 PHK       0.069200
     23 H12         -2.0470     3.4540    -0.9020 h1         1 PHK       0.069200
     24 H           -2.3220     0.9600    -1.0510 h1         1 PHK       0.100700
     25 H13         -0.4060     1.5340     2.0300 hn         1 PHK       0.459467
     26 H14         -0.5640     2.9950     1.3150 hn         1 PHK       0.459467
     27 H8          -0.0790     1.9780    -0.8370 hx         1 PHK       0.119700
     28 HN3          0.8730     2.2170     1.2760 hn         1 PHK       0.459467
@<TRIPOS>BOND
     1     1     2 1
     2     1    13 1
     3     1    14 1
     4     1    15 1
     5     2     3 ar
     6     2     4 ar
     7     3     5 ar
     8     3    16 1
     9     4     6 ar
    10     4    17 1
    11     5     7 ar
    12     5    18 1
    13     6     7 ar
    14     6    19 1
    15     7    20 1
    16     8    11 1
    17     8    21 1
    18     9    10 1
    19     9    11 1
    20     9    22 1
    21     9    23 1
    22    11    13 1
    23    11    24 1
    24    12    13 1
    25    12    25 1
    26    12    26 1
    27    13    27 1
    28    28    12 1
@<TRIPOS>SUBSTRUCTURE
     1 PHK         1 TEMP              0 ****  ****    0 ROOT
