@<TRIPOS>MOLECULE
PHN
   22    24     1     0     0
SMALL
bcc


@<TRIPOS>ATOM
      1 N1         -0.0030    0.0000   -0.0550 nb        1 PHN     -0.622000
      2 C2          1.3240    0.0000   -0.0090 ca        1 PHN      0.401200
      3 C3          2.0830   -0.0000    1.1940 ca        1 PHN     -0.241300
      4 C4          1.4010   -0.0000    2.3910 ca        1 PHN     -0.087000
      5 C4A        -0.0160    0.0000    2.3870 ca        1 PHN     -0.145300
      6 C5         -0.7510    0.0000    3.6150 ca        1 PHN     -0.110000
      7 C6         -2.1080    0.0000    3.6120 ca        1 PHN     -0.110000
      8 C6A        -2.8390    0.0000    2.3830 ca        1 PHN     -0.145300
      9 C7         -4.2570    0.0000    2.3820 ca        1 PHN     -0.087000
     10 C8         -4.9350   -0.0000    1.1830 ca        1 PHN     -0.241300
     11 C9         -4.1730    0.0000   -0.0180 ca        1 PHN      0.401200
     12 N10        -2.8450    0.0000   -0.0600 nb        1 PHN     -0.622000
     13 C10        -2.1600    0.0000    1.1310 ca        1 PHN      0.359300
     14 C1A        -0.6910    0.0000    1.1330 ca        1 PHN      0.359300
     15 H2          1.8380    0.0000   -0.9890 h4        1 PHN      0.026100
     16 H3          3.1800   -0.0000    1.1500 ha        1 PHN      0.145000
     17 H4          1.9360   -0.0000    3.3530 ha        1 PHN      0.139000
     18 H5         -0.1820   -0.0000    4.5570 ha        1 PHN      0.137000
     19 H6         -2.6800   -0.0000    4.5530 ha        1 PHN      0.137000
     20 H7         -4.7950   -0.0000    3.3420 ha        1 PHN      0.139000
     21 H8         -6.0310   -0.0000    1.1360 ha        1 PHN      0.145000
     22 H9         -4.6830    0.0000   -0.9990 h4        1 PHN      0.026100
@<TRIPOS>BOND
     1    1    2 ar  
     2    1   14 ar  
     3    2    3 ar  
     4    2   15 1   
     5    3    4 ar  
     6    3   16 1   
     7    4    5 ar  
     8    4   17 1   
     9    5    6 ar  
    10    5   14 ar  
    11    6    7 ar  
    12    6   18 1   
    13    7    8 ar  
    14    7   19 1   
    15    8    9 ar  
    16    8   13 ar  
    17    9   10 ar  
    18    9   20 1   
    19   10   11 ar  
    20   10   21 1   
    21   11   12 ar  
    22   11   22 1   
    23   12   13 ar  
    24   13   14 ar  
@<TRIPOS>SUBSTRUCTURE
     1 PHN         1 TEMP              0 ****  ****    0 ROOT
