@<TRIPOS>MOLECULE
molecule
   22    24     1     0     0
SMALL
bcc


@<TRIPOS>ATOM
      1 N1           0.0000     0.0000     0.0000 nb         1 PHN      -0.646000
      2 C2           1.3140     0.0000     0.0000 ca         1 PHN       0.424200
      3 C3           2.0400     0.0000     1.1850 ca         1 PHN      -0.251300
      4 C4           1.3850     0.0000     2.3850 ca         1 PHN      -0.084000
      5 C4A         -0.0200     0.0000     2.3770 ca         1 PHN      -0.150300
      6 C5          -0.7550    -0.0000     3.5830 ca         1 PHN      -0.111000
      7 C6          -2.1030    -0.0000     3.5810 ca         1 PHN      -0.111000
      8 C6A         -2.8360     0.0000     2.3730 ca         1 PHN      -0.150300
      9 C7          -4.2410     0.0000     2.3770 ca         1 PHN      -0.084000
     10 C8          -4.8920     0.0000     1.1750 ca         1 PHN      -0.251300
     11 C9          -4.1620     0.0000    -0.0080 ca         1 PHN       0.424200
     12 N10         -2.8480     0.0000    -0.0040 nb         1 PHN      -0.646000
     13 C10         -2.1600     0.0000     1.1340 ca         1 PHN       0.380300
     14 C1A         -0.6920     0.0000     1.1360 ca         1 PHN       0.380300
     15 H2           1.8430     0.0000    -0.9450 h4         1 PHN       0.026100
     16 H3           3.1230    -0.0000     1.1580 ha         1 PHN       0.138000
     17 H4           1.9360    -0.0000     3.3180 ha         1 PHN       0.140000
     18 H5          -0.2260    -0.0000     4.5280 ha         1 PHN       0.133000
     19 H6          -2.6360    -0.0000     4.5240 ha         1 PHN       0.133000
     20 H7          -4.7940     0.0000     3.3080 ha         1 PHN       0.140000
     21 H8          -5.9750     0.0000     1.1440 ha         1 PHN       0.138000
     22 H9          -4.6880     0.0000    -0.9550 h4         1 PHN       0.026100
@<TRIPOS>BOND
     1     1     2 ar
     2     1    14 ar
     3     2     3 ar
     4     2    15 1
     5     3     4 ar
     6     3    16 1
     7     4     5 ar
     8     4    17 1
     9     5     6 ar
    10     5    14 ar
    11     6     7 ar
    12     6    18 1
    13     7     8 ar
    14     7    19 1
    15     8     9 ar
    16     8    13 ar
    17     9    10 ar
    18     9    20 1
    19    10    11 ar
    20    10    21 1
    21    11    12 ar
    22    11    22 1
    23    12    13 ar
    24    13    14 ar
@<TRIPOS>SUBSTRUCTURE
     1 PHN         1 TEMP              0 ****  ****    0 ROOT
