@<TRIPOS>MOLECULE
PHQ
   18    18     1     0     0
SMALL
bcc


@<TRIPOS>ATOM
      1 C1          0.0260    0.0020    0.0240 c         1 PHQ      0.632700
      2 O1          1.2550    0.0030    0.0100 o         1 PHQ     -0.505000
      3 O2         -0.6570    0.0010    1.2010 os        1 PHQ     -0.408900
      4 C2          0.1600    0.0010    2.3980 c3        1 PHQ      0.188700
      5 C3         -0.7810    0.0010    3.5530 ca        1 PHQ     -0.104300
      6 C4         -1.2170   -1.2100    4.1040 ca        1 PHQ     -0.100000
      7 C5         -2.0710   -1.2070    5.2050 ca        1 PHQ     -0.134000
      8 C6         -2.4970    0.0010    5.7580 ca        1 PHQ     -0.113000
      9 C7         -2.0690    1.2090    5.2060 ca        1 PHQ     -0.134000
     10 C8         -1.2150    1.2110    4.1050 ca        1 PHQ     -0.100000
     11 CL1        -1.0200    0.0030   -1.3300 cl        1 PHQ     -0.027600
     12 H21         0.8070   -0.9160    2.3810 h1        1 PHQ      0.064700
     13 H22         0.8080    0.9170    2.3820 h1        1 PHQ      0.064700
     14 H41        -0.8850   -2.1620    3.6640 ha        1 PHQ      0.136000
     15 H51        -2.4110   -2.1600    5.6370 ha        1 PHQ      0.136000
     16 H61        -3.1720    0.0010    6.6260 ha        1 PHQ      0.134000
     17 H71        -2.4080    2.1620    5.6390 ha        1 PHQ      0.136000
     18 H81        -0.8820    2.1640    3.6660 ha        1 PHQ      0.136000
@<TRIPOS>BOND
     1    1    2 2   
     2    1    3 1   
     3    1   11 1   
     4    3    4 1   
     5    4    5 1   
     6    4   12 1   
     7    4   13 1   
     8    5    6 ar  
     9    5   10 ar  
    10    6    7 ar  
    11    6   14 1   
    12    7    8 ar  
    13    7   15 1   
    14    8    9 ar  
    15    8   16 1   
    16    9   10 ar  
    17    9   17 1   
    18   10   18 1   
@<TRIPOS>SUBSTRUCTURE
     1 PHQ         1 TEMP              0 ****  ****    0 ROOT
