@<TRIPOS>MOLECULE
molecule
   18    18     1     0     0
SMALL
bcc


@<TRIPOS>ATOM
      1 C1           0.0000     0.0000     0.0000 c          1 PHQ       0.641700
      2 O1           1.2130     0.0000     0.0000 o          1 PHQ      -0.512000
      3 O2          -0.6710     0.0000     1.1640 os         1 PHQ      -0.404900
      4 C2           0.1210     0.0000     2.3810 c3         1 PHQ       0.203700
      5 C3          -0.7970     0.0010     3.5770 ca         1 PHQ      -0.106300
      6 C4          -1.2180    -1.1970     4.1260 ca         1 PHQ      -0.099000
      7 C5          -2.0600    -1.1960     5.2220 ca         1 PHQ      -0.132000
      8 C6          -2.4800     0.0020     5.7700 ca         1 PHQ      -0.112000
      9 C7          -2.0580     1.1980     5.2230 ca         1 PHQ      -0.132000
     10 C8          -1.2130     1.1980     4.1280 ca         1 PHQ      -0.099000
     11 Cl1         -0.8680     0.0070    -1.5030 cl         1 PHQ      -0.040600
     12 H21          0.7450    -0.8850     2.4060 h1         1 PHQ       0.060700
     13 H22          0.7460     0.8840     2.4060 h1         1 PHQ       0.060700
     14 H41         -0.8890    -2.1350     3.6960 ha         1 PHQ       0.135000
     15 H51         -2.3910    -2.1340     5.6520 ha         1 PHQ       0.134000
     16 H61         -3.1400     0.0020     6.6280 ha         1 PHQ       0.133000
     17 H71         -2.3860     2.1360     5.6540 ha         1 PHQ       0.134000
     18 H81         -0.8830     2.1370     3.6990 ha         1 PHQ       0.135000
@<TRIPOS>BOND
     1     1     2 2
     2     1     3 1
     3     1    11 1
     4     3     4 1
     5     4     5 1
     6     4    12 1
     7     4    13 1
     8     5     6 ar
     9     5    10 ar
    10     6     7 ar
    11     6    14 1
    12     7     8 ar
    13     7    15 1
    14     8     9 ar
    15     8    16 1
    16     9    10 ar
    17     9    17 1
    18    10    18 1
@<TRIPOS>SUBSTRUCTURE
     1 PHQ         1 TEMP              0 ****  ****    0 ROOT
