@<TRIPOS>MOLECULE
PHR
   57    58     1     0     0
SMALL
bcc


@<TRIPOS>ATOM
      1 O2P         1.8270   -1.4980   -1.2970 o         1 PHR     -0.934833
      2 P           3.2560   -1.0690   -1.4760 p5        1 PHR      1.313900
      3 O3P         4.3110   -1.9590   -0.8700 o         1 PHR     -0.934833
      4 O1P         3.6250   -0.4610   -2.8040 o         1 PHR     -0.934833
      5 O27         3.3570    0.3390   -0.4430 os        1 PHR     -0.560200
      6 C20         4.6210    0.8510   -0.3470 c3        1 PHR      0.246400
      7 C19         4.7450    2.2000   -1.0800 c3        1 PHR     -0.132400
      8 C18         6.1580    2.7280   -1.0000 c3        1 PHR     -0.067400
      9 C17         6.3120    4.0350   -1.7520 c3        1 PHR     -0.077400
     10 C16         7.7620    4.4740   -1.7850 c3        1 PHR     -0.107400
     11 C15         7.9030    5.7930   -2.5390 c3        1 PHR      0.052000
     12 N5          9.2610    6.2630   -2.7670 n         1 PHR     -0.242000
     13 C9         10.0360    6.7620   -1.6780 cc        1 PHR     -0.244600
     14 C4          9.6360    7.6740   -0.6190 c         1 PHR      0.759700
     15 O2          8.5080    8.1520   -0.4280 o         1 PHR     -0.601500
     16 N3         10.6860    8.0410    0.2570 n         1 PHR     -0.588500
     17 C6         10.1590    5.4020   -3.5030 c         1 PHR      0.759500
     18 O4          9.9370    4.7790   -4.5490 o         1 PHR     -0.586500
     19 N7         11.5030    5.5220   -2.9430 n         1 PHR     -0.371000
     20 C8         11.3740    6.3280   -1.7940 cd        1 PHR      0.158200
     21 N1         12.3570    6.7070   -0.8990 n         1 PHR     -0.445100
     22 C2         12.0130    7.6080    0.1330 c         1 PHR      0.815500
     23 O1         12.9020    8.0020    0.9210 o         1 PHR     -0.657500
     24 C10        12.5190    4.5300   -3.1360 c3        1 PHR      0.091000
     25 C11        13.7940    5.0840   -3.8040 c3        1 PHR      0.109100
     26 O19        14.4690    5.8640   -2.8260 oh        1 PHR     -0.627800
     27 C12        14.6990    3.9170   -4.2440 c3        1 PHR      0.114100
     28 O21        15.4300    3.3890   -3.1570 oh        1 PHR     -0.586800
     29 C13        15.6700    4.3410   -5.3620 c3        1 PHR      0.107100
     30 O23        16.1480    5.6410   -5.0460 oh        1 PHR     -0.628800
     31 C14        14.9690    4.3290   -6.7230 c3        1 PHR      0.090400
     32 O26        15.9210    4.8090   -7.6610 oh        1 PHR     -0.618800
     33 H201        4.8790    1.0420    0.7410 h1        1 PHR     -0.023800
     34 H202        5.3840    0.1340   -0.7680 h1        1 PHR     -0.023800
     35 H191        4.4470    2.0380   -2.1490 hc        1 PHR      0.044200
     36 H192        4.0330    2.9370   -0.6310 hc        1 PHR      0.044200
     37 H181        6.4520    2.8810    0.0720 hc        1 PHR      0.025200
     38 H182        6.8580    1.9640   -1.4310 hc        1 PHR      0.025200
     39 H171        5.9340    3.9030   -2.8000 hc        1 PHR      0.039700
     40 H172        5.6870    4.8280   -1.2670 hc        1 PHR      0.039700
     41 H161        8.1450    4.5880   -0.7380 hc        1 PHR      0.042200
     42 H162        8.3750    3.6800   -2.2880 hc        1 PHR      0.042200
     43 H151        7.4390    5.6870   -3.5610 h1        1 PHR      0.085200
     44 H152        7.3730    6.6130   -1.9740 h1        1 PHR      0.085200
     45 H3         10.4810    8.6420    1.0260 hn        1 PHR      0.351500
     46 H1         13.3180    6.4740   -1.0450 hn        1 PHR      0.375500
     47 H101       12.8170    4.0640   -2.1530 h1        1 PHR      0.086200
     48 H102       12.0900    3.7300   -3.8080 h1        1 PHR      0.086200
     49 H11        13.5400    5.7170   -4.6980 h1        1 PHR      0.065700
     50 H19        15.1320    6.3920   -3.2920 ho        1 PHR      0.431000
     51 H12        14.0790    3.0530   -4.6160 h1        1 PHR      0.093700
     52 H21        15.8190    4.1350   -2.6790 ho        1 PHR      0.418000
     53 H13        16.5420    3.6280   -5.3820 h1        1 PHR      0.066700
     54 H23        16.6590    5.9450   -5.8080 ho        1 PHR      0.429000
     55 H141       14.6590    3.2840   -6.9870 h1        1 PHR      0.045700
     56 H142       14.0690    4.9980   -6.7130 h1        1 PHR      0.045700
     57 H26        15.4730    4.8540   -8.5130 ho        1 PHR      0.412000
@<TRIPOS>BOND
     1    1    2 1   
     2    2    3 1   
     3    2    4 1   
     4    2    5 1   
     5    5    6 1   
     6    6    7 1   
     7    6   33 1   
     8    6   34 1   
     9    7    8 1   
    10    7   35 1   
    11    7   36 1   
    12    8    9 1   
    13    8   37 1   
    14    8   38 1   
    15    9   10 1   
    16    9   39 1   
    17    9   40 1   
    18   10   11 1   
    19   10   41 1   
    20   10   42 1   
    21   11   12 1   
    22   11   43 1   
    23   11   44 1   
    24   12   13 1   
    25   12   17 1   
    26   13   14 1   
    27   13   20 2   
    28   14   15 2   
    29   14   16 1   
    30   16   22 1   
    31   16   45 1   
    32   17   18 2   
    33   17   19 1   
    34   19   20 1   
    35   19   24 1   
    36   20   21 1   
    37   21   22 1   
    38   21   46 1   
    39   22   23 2   
    40   24   25 1   
    41   24   47 1   
    42   24   48 1   
    43   25   26 1   
    44   25   27 1   
    45   25   49 1   
    46   26   50 1   
    47   27   28 1   
    48   27   29 1   
    49   27   51 1   
    50   28   52 1   
    51   29   30 1   
    52   29   31 1   
    53   29   53 1   
    54   30   54 1   
    55   31   32 1   
    56   31   55 1   
    57   31   56 1   
    58   32   57 1   
@<TRIPOS>SUBSTRUCTURE
     1 PHR         1 TEMP              0 ****  ****    0 ROOT
