@<TRIPOS>MOLECULE
PHS
    5     4     1     0     0
SMALL
bcc


@<TRIPOS>ATOM
      1 P          -0.0130   -0.1090    0.0670 p5        1 PHS      1.261900
      2 O1P         1.4770    0.1060   -0.0830 o         1 PHS     -0.972500
      3 O2P        -0.5280   -0.0220    1.4880 o         1 PHS     -0.972500
      4 O3P        -0.5740   -1.2590   -0.7430 o         1 PHS     -0.972500
      5 HP1        -0.5700    1.0260   -0.5510 hp        1 PHS     -0.345400
@<TRIPOS>BOND
     1    1    2 1   
     2    1    3 1   
     3    1    4 1   
     4    1    5 1   
@<TRIPOS>SUBSTRUCTURE
     1 PHS         1 TEMP              0 ****  ****    0 ROOT
