@<TRIPOS>MOLECULE
molecule
    5     4     1     0     0
SMALL
bcc


@<TRIPOS>ATOM
      1 P            0.0000     0.0000     0.0000 p5         1 PHS       1.037900
      2 O1P          1.5040     0.0000     0.0000 o          1 PHS      -0.917833
      3 O2P         -0.6180     0.0000     1.5020 o          1 PHS      -0.917833
      4 O3P         -0.6310    -1.3700    -0.6010 o          1 PHS      -0.917833
      5 HP1         -0.4630     1.1120    -0.7230 hp         1 PHS      -0.284400
@<TRIPOS>BOND
     1     1     2 1
     2     1     3 1
     3     1     4 1
     4     5     1 1
@<TRIPOS>SUBSTRUCTURE
     1 PHS         1 TEMP              0 ****  ****    0 ROOT
