@<TRIPOS>MOLECULE
PHT
   16    16     1     0     0
SMALL
bcc


@<TRIPOS>ATOM
      1 O8         -0.2440   -0.7430   -0.2140 o         1 PHT     -0.587500
      2 O9          1.6510   -0.2460   -1.2610 o         1 PHT     -0.587500
      3 O11         1.0250    2.4630    2.0970 o         1 PHT     -0.578500
      4 O12        -0.2280    1.1040    3.3410 o         1 PHT     -0.578500
      5 C7          0.9910   -0.4830   -0.2020 c2        1 PHT      0.375000
      6 C1          2.5290   -0.1450    3.4090 c3        1 PHT     -0.194000
      7 C2          1.6580    0.1520    2.2340 c2        1 PHT     -0.002000
      8 C3          1.7800   -0.5960    1.0950 c2        1 PHT     -0.193000
      9 C4          2.7690   -1.6250    1.0550 c2        1 PHT      0.058000
     10 C5          3.5830   -1.9330    2.1280 c2        1 PHT     -0.326000
     11 C6          3.5100   -1.2230    3.3260 c1        1 PHT     -0.236000
     12 H1          1.8390   -0.3690    4.2780 hc        1 PHT      0.143000
     13 H4          3.0800    0.8010    3.6860 hc        1 PHT      0.143000
     14 H5          2.8650   -2.1740    0.1000 ha        1 PHT      0.112000
     15 H6          4.3170   -2.7460    2.0370 ha        1 PHT      0.085000
     16 C10         0.7270    1.3160    2.5360 c2        1 PHT      0.366000
@<TRIPOS>BOND
     1    1    5 1   
     2    2    5 1   
     3    3   16 1   
     4    4   16 1   
     5    5    8 1   
     6    6    7 1   
     7    6   11 1   
     8    6   12 1   
     9    6   13 1   
    10    7    8 1   
    11    7   16 1   
    12    8    9 1   
    13    9   10 1   
    14    9   14 1   
    15   10   11 1   
    16   10   15 1   
@<TRIPOS>SUBSTRUCTURE
     1 PHT         1 TEMP              0 ****  ****    0 ROOT
