@<TRIPOS>MOLECULE
molecule
   16    16     1     0     0
SMALL
bcc


@<TRIPOS>ATOM
      1 O8           0.0000     0.0000     0.0000 o          1 PHT      -0.841800
      2 O9           1.8880     0.4730    -1.0670 o          1 PHT      -0.841800
      3 O11          0.1640     1.5760     1.6750 o          1 PHT      -0.841800
      4 O12          0.3540     1.4610     3.8830 o          1 PHT      -0.841800
      5 C7           1.2150     0.0000     0.0000 c          1 PHT       0.891200
      6 C1           2.4010    -0.5010     3.5480 ca         1 PHT      -0.131500
      7 C2           1.7000     0.0000     2.4530 ca         1 PHT      -0.073600
      8 C3           1.9530    -0.5170     1.1700 ca         1 PHT      -0.073600
      9 C4           2.9080    -1.5180     1.0090 ca         1 PHT      -0.131500
     10 C5           3.5980    -1.9990     2.1060 ca         1 PHT      -0.192000
     11 C6           3.3450    -1.4940     3.3680 ca         1 PHT      -0.192000
     12 H1           2.2080    -0.1100     4.5400 ha         1 PHT       0.120000
     13 H4           3.1120    -1.9190     0.0230 ha         1 PHT       0.120000
     14 H5           4.3400    -2.7780     1.9760 ha         1 PHT       0.070000
     15 H6           3.8900    -1.8810     4.2210 ha         1 PHT       0.070000
     16 C10          0.6900     1.0620     2.6410 c          1 PHT       0.891200
@<TRIPOS>BOND
     1     1     5 1
     2     2     5 1
     3    16     3 1
     4    16     4 1
     5    16     7 1
     6     5     8 1
     7     6     7 ar
     8     6    11 ar
     9     6    12 1
    10     7     8 ar
    11     8     9 ar
    12     9    10 ar
    13     9    13 1
    14    10    11 ar
    15    10    14 1
    16    11    15 1
@<TRIPOS>SUBSTRUCTURE
     1 PHT         1 TEMP              0 ****  ****    0 ROOT
