@<TRIPOS>MOLECULE
molecule
   19    19     1     0     0
SMALL
bcc


@<TRIPOS>ATOM
      1 C1           0.0000     0.0000     0.0000 c          1 PHU       0.575100
      2 C2           2.0470    -0.0970    -1.2080 ca         1 PHU      -0.010400
      3 C3           1.5460     0.5070    -2.3540 ca         1 PHU      -0.119000
      4 C4           3.2470    -0.7940    -1.2630 ca         1 PHU      -0.119000
      5 C5           3.9380    -0.8850    -2.4550 ca         1 PHU      -0.100500
      6 C6           2.2420     0.4120    -3.5430 ca         1 PHU      -0.100500
      7 C7           3.4360    -0.2820    -3.5950 ca         1 PHU      -0.096000
      8 N1           1.3480     0.0000     0.0000 ns         1 PHU      -0.422100
      9 N2          -0.6740     0.0000     1.1670 nz         1 PHU      -0.671400
     10 O1          -0.6080     0.0050    -1.0530 o          1 PHU      -0.484100
     11 H3           0.6100     1.0510    -2.3150 ha         1 PHU       0.146500
     12 H4           3.6410    -1.2670    -0.3710 ha         1 PHU       0.146500
     13 H5           4.8740    -1.4280    -2.4990 ha         1 PHU       0.158000
     14 H6           1.8510     0.8840    -4.4370 ha         1 PHU       0.158000
     15 H7           3.9800    -0.3540    -4.5290 ha         1 PHU       0.157000
     16 HN1          1.8480     0.1000     0.8610 hn         1 PHU       0.338500
     17 HN2         -0.4980     0.8560     1.6540 hn         1 PHU       0.480467
     18 HN2A        -1.6550    -0.0850     0.9870 hn         1 PHU       0.480467
     19 H23         -0.3700    -0.7710     1.7280 hn         1 PHU       0.480467
@<TRIPOS>BOND
     1    10     1 2
     2     1     9 1
     3     1     8 1
     4     3     2 ar
     5     8     2 1
     6     2     4 ar
     7     3     6 ar
     8     3    11 1
     9     4     5 ar
    10     4    12 1
    11     7     5 ar
    12     5    13 1
    13     6     7 ar
    14     6    14 1
    15     7    15 1
    16     8    16 1
    17     9    17 1
    18     9    18 1
    19    19     9 1
@<TRIPOS>SUBSTRUCTURE
     1 PHU         1 TEMP              0 ****  ****    0 ROOT
