@<TRIPOS>MOLECULE
molecule
   33    34     1     0     0
SMALL
bcc


@<TRIPOS>ATOM
      1 CAC          0.0000     0.0000     0.0000 ca         1 PHX      -0.100000
      2 CAB          1.3800     0.0000     0.0000 ca         1 PHX      -0.138000
      3 CAM          2.0750     0.0000     1.1960 ca         1 PHX      -0.129000
      4 CAQ          1.3920     0.0000     2.4010 ca         1 PHX      -0.138000
      5 CAR          0.0130     0.0010     2.4150 ca         1 PHX      -0.100000
      6 CAN         -0.6950     0.0010     1.2120 ca         1 PHX      -0.072900
      7 CAO         -2.1720     0.0010     1.2190 cc         1 PHX       0.540200
      8 NAD         -2.9110     0.0020     2.2930 nd         1 PHX      -0.573300
      9 OAS         -2.9470     0.0070     0.1160 os         1 PHX      -0.409700
     10 CAT         -4.2400     0.0060     0.5020 c          1 PHX       0.721800
     11 OAU         -5.2200     0.0110    -0.2210 o          1 PHX      -0.621500
     12 CAE         -4.2260     0.0040     1.9240 cd         1 PHX      -0.252600
     13 CAF         -5.3220     0.0030     2.7630 c2         1 PHX       0.258000
     14 NAG         -6.5770     0.0050     2.2410 nu         1 PHX      -0.716000
     15 CAH         -7.7410     0.0060     3.1310 c3         1 PHX       0.189800
     16 CAI         -9.0230     0.0060     2.2950 c3         1 PHX      -0.079400
     17 CAJ        -10.2380     0.0060     3.2250 c3         1 PHX      -0.182400
     18 CAK        -11.5000     0.0070     2.4020 c          1 PHX       0.892600
     19 OAL        -11.4350     0.0080     1.1960 o          1 PHX      -0.846800
     20 OAP        -12.6970     0.0080     3.0100 o          1 PHX      -0.846800
     21 HAC         -0.5430     0.0000    -0.9370 ha         1 PHX       0.150500
     22 HAB          1.9200    -0.0000    -0.9390 ha         1 PHX       0.127500
     23 HAM          3.1580    -0.0000     1.1910 ha         1 PHX       0.123000
     24 HAQ          1.9420    -0.0000     3.3340 ha         1 PHX       0.127500
     25 HAR         -0.5200     0.0010     3.3580 ha         1 PHX       0.150500
     26 HAF         -5.1820     0.0020     3.8370 h4         1 PHX       0.162000
     27 HAG         -6.7060    -0.0210     1.2480 hn         1 PHX       0.487800
     28 HAH1        -7.7170     0.8900     3.7560 h1         1 PHX       0.044700
     29 HAH2        -7.7180    -0.8790     3.7570 h1         1 PHX       0.044700
     30 HAI1        -9.0470     0.8900     1.6700 hc         1 PHX       0.062200
     31 HAI2        -9.0470    -0.8790     1.6710 hc         1 PHX       0.062200
     32 HAJ1       -10.2150    -0.8780     3.8500 hc         1 PHX       0.030700
     33 HAJ2       -10.2140     0.8910     3.8500 hc         1 PHX       0.030700
@<TRIPOS>BOND
     1     1     2 ar
     2     1     6 ar
     3     2     3 ar
     4     3     4 ar
     5     4     5 ar
     6     5     6 ar
     7     6     7 1
     8     7     8 2
     9     7     9 1
    10     8    12 1
    11     9    10 1
    12    10    11 2
    13    10    12 1
    14    12    13 2
    15    13    14 1
    16    14    15 1
    17    15    16 1
    18    16    17 1
    19    17    18 1
    20    18    19 1
    21    18    20 1
    22     1    21 1
    23     2    22 1
    24     3    23 1
    25     4    24 1
    26     5    25 1
    27    13    26 1
    28    14    27 1
    29    15    28 1
    30    15    29 1
    31    16    30 1
    32    16    31 1
    33    17    32 1
    34    17    33 1
@<TRIPOS>SUBSTRUCTURE
     1 PHX         1 TEMP              0 ****  ****    0 ROOT
