@<TRIPOS>MOLECULE
PHX
   33    34     1     0     0
SMALL
bcc


@<TRIPOS>ATOM
      1 CAC          0.0000     0.0000     0.0000 ca         1 PHX      -0.082500
      2 CAB          1.3800     0.0000     0.0000 ca         1 PHX      -0.109500
      3 CAM          2.0750     0.0000     1.1960 ca         1 PHX      -0.108000
      4 CAQ          1.3920     0.0000     2.4010 ca         1 PHX      -0.109500
      5 CAR          0.0130     0.0010     2.4150 ca         1 PHX      -0.082500
      6 CAN         -0.6950     0.0010     1.2120 ca         1 PHX      -0.072900
      7 CAO         -2.1720     0.0010     1.2190 cc         1 PHX       0.502200
      8 NAD         -2.9110     0.0020     2.2930 nd         1 PHX      -0.482300
      9 OAS         -2.9470     0.0070     0.1160 os         1 PHX      -0.379700
     10 CAT         -4.2400     0.0060     0.5020 c          1 PHX       0.790800
     11 OAU         -5.2200     0.0110    -0.2210 o          1 PHX      -0.672500
     12 CAE         -4.2260     0.0040     1.9240 cd         1 PHX      -0.316600
     13 CAF         -5.3220     0.0030     2.7630 c2         1 PHX       0.128000
     14 NAG         -6.5770     0.0050     2.2410 nu         1 PHX      -0.268000
     15 CAH         -7.7410     0.0060     3.1310 c3         1 PHX       0.110800
     16 CAI         -9.0230     0.0060     2.2950 c3         1 PHX      -0.025400
     17 CAJ        -10.2380     0.0060     3.2250 c3         1 PHX      -0.130400
     18 CAK        -11.5000     0.0070     2.4020 c          1 PHX       0.979600
     19 OAL        -11.4350     0.0080     1.1960 o          1 PHX      -0.896300
     20 OAP        -12.6970     0.0080     3.0100 o          1 PHX      -0.896300
     21 HAC         -0.5430     0.0000    -0.9370 ha         1 PHX       0.120500
     22 HAB          1.9200    -0.0000    -0.9390 ha         1 PHX       0.099000
     23 HAM          3.1580    -0.0000     1.1910 ha         1 PHX       0.096000
     24 HAQ          1.9420    -0.0000     3.3340 ha         1 PHX       0.099000
     25 HAR         -0.5200     0.0010     3.3580 ha         1 PHX       0.120500
     26 HAF         -5.1820     0.0020     3.8370 h4         1 PHX       0.122000
     27 HAG         -6.7060    -0.0210     1.2480 hn         1 PHX       0.342800
     28 HAH1        -7.7170     0.8900     3.7560 h1         1 PHX       0.021200
     29 HAH2        -7.7180    -0.8790     3.7570 h1         1 PHX       0.021200
     30 HAI1        -9.0470    -0.8790     1.6710 hc         1 PHX       0.034200
     31 HAI2        -9.0470     0.8900     1.6700 hc         1 PHX       0.034200
     32 HAJ1       -10.2140     0.8910     3.8500 hc         1 PHX       0.006700
     33 HAJ2       -10.2150    -0.8780     3.8500 hc         1 PHX       0.006700
@<TRIPOS>BOND
     1     1     2 ar  
     2     1     6 ar  
     3     1    21 1   
     4     2     3 ar  
     5     2    22 1   
     6     3     4 ar  
     7     3    23 1   
     8     4     5 ar  
     9     4    24 1   
    10     5     6 ar  
    11     5    25 1   
    12     6     7 1   
    13     7     8 2   
    14     7     9 1   
    15     8    12 1   
    16     9    10 1   
    17    10    11 2   
    18    10    12 1   
    19    12    13 2   
    20    13    14 1   
    21    13    26 1   
    22    14    15 1   
    23    14    27 1   
    24    15    16 1   
    25    15    28 1   
    26    15    29 1   
    27    16    17 1   
    28    16    30 1   
    29    16    31 1   
    30    17    18 1   
    31    17    32 1   
    32    17    33 1   
    33    18    19 1   
    34    18    20 1   
@<TRIPOS>SUBSTRUCTURE
     1 PHX         1 TEMP              0 ****  ****    0 ROOT
