@<TRIPOS>MOLECULE
PHZ
   17    17     1     0     0
SMALL
bcc


@<TRIPOS>ATOM
      1 N1           0.0000     0.0000     0.0000 nz         1 PHZ       0.312600
      2 N2           1.3650     0.0000     0.0000 nu         1 PHZ      -0.488400
      3 CG           2.0640     0.0000     1.2100 ca         1 PHZ      -0.016400
      4 CD1          1.3720     0.0050     2.4140 ca         1 PHZ      -0.132500
      5 CE1          2.0660     0.0000     3.6080 ca         1 PHZ      -0.034000
      6 CZ           3.4480     0.0010     3.6060 ca         1 PHZ      -0.076000
      7 CE2          4.1410     0.0010     2.4080 ca         1 PHZ      -0.034000
      8 CD2          3.4540    -0.0000     1.2110 ca         1 PHZ      -0.132500
      9 HN11        -0.3340    -0.0020    -0.9440 hn         1 PHZ       0.212133
     10 HN12        -0.3340    -0.8160     0.4730 hn         1 PHZ       0.212133
     11 HN2          1.8660    -0.0000    -0.8670 hn         1 PHZ       0.380800
     12 HD1          0.2890     0.0050     2.4160 ha         1 PHZ       0.103000
     13 HE1          1.5260     0.0030     4.5470 ha         1 PHZ       0.125500
     14 HZ           3.9900    -0.0000     4.5440 ha         1 PHZ       0.128000
     15 HE2          5.2240     0.0010     2.4100 ha         1 PHZ       0.125500
     16 HD2          3.9970    -0.0010     0.2740 ha         1 PHZ       0.103000
     17 H13         -0.3340     0.8180     0.4710 hn         1 PHZ       0.212133
@<TRIPOS>BOND
     1     1     2 1   
     2     1     9 1   
     3     1    10 1   
     4     1    17 1   
     5     2     3 1   
     6     2    11 1   
     7     3     4 ar  
     8     3     8 ar  
     9     4     5 ar  
    10     4    12 1   
    11     5     6 ar  
    12     5    13 1   
    13     6     7 ar  
    14     6    14 1   
    15     7     8 ar  
    16     7    15 1   
    17     8    16 1   
@<TRIPOS>SUBSTRUCTURE
     1 PHZ         1 TEMP              0 ****  ****    0 ROOT
