@<TRIPOS>MOLECULE
PI
    5     4     1     0     0
SMALL
bcc


@<TRIPOS>ATOM
      1 P          13.6590  -11.0400   13.2460 p5        1 PI       1.243000
      2 O1         14.7240  -11.7380   14.1400 o         1 PI      -1.060500
      3 O2         14.1960   -9.6550   12.7860 o         1 PI      -1.060500
      4 O3         12.3470  -10.8450   14.0590 o         1 PI      -1.060500
      5 O4         13.3700  -11.9240   11.9990 o         1 PI      -1.060500
@<TRIPOS>BOND
     1    1    2 1   
     2    1    3 1   
     3    1    4 1   
     4    1    5 1   
@<TRIPOS>SUBSTRUCTURE
     1 PI          1 TEMP              0 ****  ****    0 ROOT
