@<TRIPOS>MOLECULE
molecule
    5     4     1     0     0
SMALL
bcc


@<TRIPOS>ATOM
      1 P           13.6520   -11.0490    13.3310 p5         1 PI        1.382000
      2 O1          14.7070   -11.7510    14.1090 o          1 PI       -1.095500
      3 O2          14.1510    -9.7460    12.7230 o          1 PI       -1.095500
      4 O3          12.3820   -10.8620    13.9940 o          1 PI       -1.095500
      5 O4          13.4040   -11.7940    12.0730 o          1 PI       -1.095500
@<TRIPOS>BOND
     1     1     2 1
     2     1     3 1
     3     1     4 1
     4     1     5 1
@<TRIPOS>SUBSTRUCTURE
     1 PI          1 TEMP              0 ****  ****    0 ROOT
