@<TRIPOS>MOLECULE
PI0
   76    77     1     0     0
SMALL
bcc


@<TRIPOS>ATOM
      1 C1           1.5300     0.0000     0.0000 c3         1 PI0      -0.086700
      2 C2          -0.5890     4.5720     0.2320 c          1 PI0       0.353100
      3 O3           3.8260    -1.9870     2.7480 o          1 PI0      -0.562300
      4 C4           0.0000     0.0000     0.0000 c3         1 PI0      -0.058400
      5 C6          -0.5100    -1.3370     0.5450 c3         1 PI0      -0.018100
      6 C7           3.9830    -4.7280     0.7450 ca         1 PI0      -0.083500
      7 C9           3.9660    -2.3090     0.1030 c3         1 PI0       0.064700
      8 C10          5.8670    -6.1300     0.2830 ca         1 PI0      -0.078000
      9 C15          1.5030     1.2080     2.1660 c          1 PI0       0.588100
     10 C16         -4.6320     4.3590     6.2140 ca         1 PI0      -0.053000
     11 C17         -5.1670     5.4910     6.7930 ca         1 PI0      -0.072000
     12 C18         -0.2820     2.3710     3.3490 c3         1 PI0      -0.056300
     13 C19         -0.9650     3.2230     2.2790 c3         1 PI0      -0.038400
     14 C20          0.0840     3.7310     1.2870 c3         1 PI0      -0.196400
     15 C23         -3.4250     5.4460     8.4610 ca         1 PI0      -0.072000
     16 C24         -2.9000     4.3130     7.8730 ca         1 PI0      -0.053000
     17 C28         -1.2920     1.9720     4.3940 c          1 PI0       0.566100
     18 C32         -2.9250     2.5330     6.1140 c3         1 PI0       0.103300
     19 O1           2.1710     2.2170     2.2410 o          1 PI0      -0.684100
     20 N17          0.2800     1.1680     2.7300 ns         1 PI0      -0.182900
     21 C22         -4.5640     6.0430     7.9230 ca         1 PI0      -0.215900
     22 C25         -3.5020     3.7700     6.7520 ca         1 PI0      -0.075300
     23 N1          -6.1960     7.8160     8.0450 n2         1 PI0      -0.467100
     24 O2          -1.7880     4.7480     0.2710 o          1 PI0      -0.420100
     25 N3           0.1430     5.1280    -0.7540 nz         1 PI0       0.199600
     26 N4           3.5040     0.0410     1.4430 n7         1 PI0      -0.597100
     27 C5           2.0400     0.0000     1.4440 c3         1 PI0       0.134500
     28 C3           2.0390     1.2510    -0.7200 c3         1 PI0      -0.014100
     29 S1           4.3720    -1.3600     1.5950 s6         1 PI0       0.951900
     30 O4           5.7290    -0.9380     1.5640 o          1 PI0      -0.562300
     31 C8           4.6370    -3.6570     0.1660 ca         1 PI0      -0.108300
     32 C12          4.5980    -5.9640     0.8030 ca         1 PI0      -0.088000
     33 C11          6.5220    -5.0580    -0.2960 ca         1 PI0      -0.088000
     34 C13          5.9070    -3.8220    -0.3540 ca         1 PI0      -0.083500
     35 N2          -4.5340     7.8030     9.6660 nz         1 PI0       0.190400
     36 H1           1.8910    -0.8840    -0.5110 hc         1 PI0       0.061700
     37 H4          -0.3610     0.8070     0.6260 hc         1 PI0       0.008700
     38 H4A         -0.3610     0.1380    -1.0120 hc         1 PI0       0.008700
     39 H6           0.3340    -1.7950     0.0440 hc         1 PI0       0.024367
     40 H6A         -1.4650    -1.6310     0.1280 hc         1 PI0       0.024367
     41 H6B         -0.4530    -1.4060     1.6250 hc         1 PI0       0.024367
     42 H9           4.3140    -1.7730    -0.7720 h1         1 PI0       0.064200
     43 H9A          2.8930    -2.4420     0.0420 h1         1 PI0       0.064200
     44 H16         -5.0990     3.9290     5.3360 ha         1 PI0       0.132000
     45 H17         -6.0520     5.9510     6.3700 ha         1 PI0       0.104500
     46 H18          0.5120     2.9420     3.8140 h1         1 PI0       0.071700
     47 H19         -1.6990     2.6240     1.7540 hc         1 PI0       0.037700
     48 H19A        -1.4560     4.0670     2.7490 hc         1 PI0       0.037700
     49 H20          0.7190     4.0810     2.0910 hc         1 PI0       0.116700
     50 H20A         0.5580     2.8830     0.8080 hc         1 PI0       0.116700
     51 H23         -2.9520     5.8700     9.3390 ha         1 PI0       0.104500
     52 H24         -2.0150     3.8480     8.2900 ha         1 PI0       0.132000
     53 H32         -3.7190     1.9620     5.6490 h1         1 PI0       0.048700
     54 H32A        -2.4410     1.9280     6.8720 h1         1 PI0       0.048700
     55 HN17        -0.2220     0.3030     2.7740 hn         1 PI0       0.228500
     56 HN1         -6.6310     7.4220     7.2340 hn         1 PI0       0.379400
     57 HN3         -0.0180     4.6330    -1.6090 hn         1 PI0       0.251467
     58 HN3A         1.1140     5.0790    -0.5170 hn         1 PI0       0.251467
     59 HN4          3.9790     0.9210     1.3950 hn         1 PI0       0.371800
     60 H5           1.7040    -0.9000     1.9450 h1         1 PI0       0.071700
     61 H3           2.6890     0.9690    -1.5400 hc         1 PI0       0.007700
     62 H3A          1.2030     1.8320    -1.0910 hc         1 PI0       0.007700
     63 H3B          2.5930     1.8230     0.0140 hc         1 PI0       0.007700
     64 H12          4.0850    -6.8040     1.2560 ha         1 PI0       0.111000
     65 H11          7.5170    -5.1880    -0.7040 ha         1 PI0       0.111000
     66 H13          6.4200    -2.9830    -0.8080 ha         1 PI0       0.108000
     67 HN2         -4.5350     7.1290    10.4060 hn         1 PI0       0.224467
     68 HN2A        -3.5920     8.0680     9.4560 hn         1 PI0       0.224467
     69 O30         -1.5210     0.7990     4.6010 o          1 PI0      -0.601100
     70 H7           2.9870    -4.5990     1.1520 ha         1 PI0       0.108000
     71 C26         -5.1320     7.2600     8.5500 ce         1 PI0       0.202800
     72 H33         -0.1250     6.0860    -0.8680 hn         1 PI0       0.251467
     73 H231        -5.0520     8.6110     9.9490 hn         1 PI0       0.224467
     74 N31         -1.9430     2.9200     5.0990 ns         1 PI0      -0.194900
     75 H10          6.3500    -7.0990     0.3280 ha         1 PI0       0.112000
     76 HN31        -1.7370     3.8870     4.9460 hn         1 PI0       0.171500
@<TRIPOS>BOND
     1     1     4 1   
     2     1    27 1   
     3     1    28 1   
     4     1    36 1   
     5     2    14 1   
     6     2    24 2   
     7     2    25 1   
     8     3    29 2   
     9     4     5 1   
    10     4    37 1   
    11     4    38 1   
    12     5    39 1   
    13     5    40 1   
    14     5    41 1   
    15     6    31 ar  
    16     6    32 ar  
    17     6    70 1   
    18     7    29 1   
    19     7    31 1   
    20     7    42 1   
    21     7    43 1   
    22     8    32 ar  
    23     8    33 ar  
    24     8    75 1   
    25     9    19 2   
    26     9    20 1   
    27     9    27 1   
    28    10    11 ar  
    29    10    22 ar  
    30    10    44 1   
    31    11    21 ar  
    32    11    45 1   
    33    12    13 1   
    34    12    17 1   
    35    12    20 1   
    36    12    46 1   
    37    13    14 1   
    38    13    47 1   
    39    13    48 1   
    40    14    49 1   
    41    14    50 1   
    42    15    16 ar  
    43    15    21 ar  
    44    15    51 1   
    45    16    22 ar  
    46    16    52 1   
    47    17    69 2   
    48    17    74 1   
    49    18    22 1   
    50    18    53 1   
    51    18    54 1   
    52    18    74 1   
    53    20    55 1   
    54    21    71 1   
    55    23    56 1   
    56    23    71 2   
    57    25    57 1   
    58    25    58 1   
    59    25    72 1   
    60    26    27 1   
    61    26    29 1   
    62    26    59 1   
    63    27    60 1   
    64    28    61 1   
    65    28    62 1   
    66    28    63 1   
    67    29    30 2   
    68    31    34 ar  
    69    32    64 1   
    70    33    34 ar  
    71    33    65 1   
    72    34    66 1   
    73    35    67 1   
    74    35    68 1   
    75    35    71 1   
    76    35    73 1   
    77    74    76 1   
@<TRIPOS>SUBSTRUCTURE
     1 PI0         1 TEMP              0 ****  ****    0 ROOT
