@<TRIPOS>MOLECULE
molecule
   76    77     1     0     0
SMALL
bcc


@<TRIPOS>ATOM
      1 C1           1.5300     0.0000     0.0000 c3         1 PI0      -0.101700
      2 C2          -0.5890     4.5720     0.2320 c          1 PI0       0.509100
      3 O3           3.8260    -1.9870     2.7480 o          1 PI0      -0.607300
      4 C4           0.0000     0.0000     0.0000 c3         1 PI0      -0.108400
      5 C6          -0.5100    -1.3370     0.5450 c3         1 PI0      -0.107100
      6 C7           3.9830    -4.7280     0.7450 ca         1 PI0      -0.107500
      7 C9           3.9660    -2.3090     0.1030 c3         1 PI0      -0.159300
      8 C10          5.8670    -6.1300     0.2830 ca         1 PI0      -0.104000
      9 C15          1.5030     1.2080     2.1660 c          1 PI0       0.671100
     10 C16         -4.6320     4.3590     6.2140 ca         1 PI0      -0.100000
     11 C17         -5.1670     5.4910     6.7930 ca         1 PI0      -0.086000
     12 C18         -0.2820     2.3710     3.3490 c3         1 PI0       0.039700
     13 C19         -0.9650     3.2230     2.2790 c3         1 PI0      -0.096400
     14 C20          0.0840     3.7310     1.2870 c3         1 PI0      -0.221400
     15 C23         -3.4250     5.4460     8.4610 ca         1 PI0      -0.086000
     16 C24         -2.9000     4.3130     7.8730 ca         1 PI0      -0.100000
     17 C28         -1.2920     1.9720     4.3940 c          1 PI0       0.654100
     18 C32         -2.9250     2.5330     6.1140 c3         1 PI0       0.153300
     19 O1           2.1710     2.2170     2.2410 o          1 PI0      -0.641100
     20 N17          0.2800     1.1680     2.7300 ns         1 PI0      -0.569900
     21 C22         -4.5640     6.0430     7.9230 ca         1 PI0      -0.182900
     22 C25         -3.5020     3.7700     6.7520 ca         1 PI0      -0.067300
     23 N1          -6.1960     7.8160     8.0450 n2         1 PI0      -0.672100
     24 O2          -1.7880     4.7480     0.2710 o          1 PI0      -0.409100
     25 N3           0.1430     5.1280    -0.7540 nz         1 PI0      -0.684400
     26 N4           3.5040     0.0410     1.4430 n7         1 PI0      -0.905100
     27 C5           2.0400     0.0000     1.4440 c3         1 PI0       0.182500
     28 C3           2.0390     1.2510    -0.7200 c3         1 PI0      -0.099100
     29 S1           4.3720    -1.3600     1.5950 s6         1 PI0       1.317900
     30 O4           5.7290    -0.9380     1.5640 o          1 PI0      -0.607300
     31 C8           4.6370    -3.6570     0.1660 ca         1 PI0      -0.108300
     32 C12          4.5980    -5.9640     0.8030 ca         1 PI0      -0.118500
     33 C11          6.5220    -5.0580    -0.2960 ca         1 PI0      -0.118500
     34 C13          5.9070    -3.8220    -0.3540 ca         1 PI0      -0.107500
     35 N2          -4.5340     7.8030     9.6660 nz         1 PI0      -0.802600
     36 H1           1.8910    -0.8840    -0.5110 hc         1 PI0       0.084700
     37 H4          -0.3610     0.1380    -1.0120 hc         1 PI0       0.037200
     38 H4A         -0.3610     0.8070     0.6260 hc         1 PI0       0.037200
     39 H6           0.3340    -1.7950     0.0440 hc         1 PI0       0.054700
     40 H6A         -1.4650    -1.6310     0.1280 hc         1 PI0       0.054700
     41 H6B         -0.4530    -1.4060     1.6250 hc         1 PI0       0.054700
     42 H9           4.3140    -1.7730    -0.7720 h1         1 PI0       0.094700
     43 H9A          2.8930    -2.4420     0.0420 h1         1 PI0       0.094700
     44 H16         -5.0990     3.9290     5.3360 ha         1 PI0       0.166000
     45 H17         -6.0520     5.9510     6.3700 ha         1 PI0       0.145500
     46 H18          0.5120     2.9420     3.8140 h1         1 PI0       0.098700
     47 H19         -1.4560     4.0670     2.7490 hc         1 PI0       0.070700
     48 H19A        -1.6990     2.6240     1.7540 hc         1 PI0       0.070700
     49 H20          0.7190     4.0810     2.0910 hc         1 PI0       0.138700
     50 H20A         0.5580     2.8830     0.8080 hc         1 PI0       0.138700
     51 H23         -2.9520     5.8700     9.3390 ha         1 PI0       0.145500
     52 H24         -2.0150     3.8480     8.2900 ha         1 PI0       0.166000
     53 H32         -2.4410     1.9280     6.8720 h1         1 PI0       0.082200
     54 H32A        -3.7190     1.9620     5.6490 h1         1 PI0       0.082200
     55 HN17        -0.2230     0.3030     2.7720 hn         1 PI0       0.360500
     56 HN1         -6.5800     8.6380     8.4670 hn         1 PI0       0.441400
     57 HN3         -0.1060     6.0930    -0.8500 hn         1 PI0       0.482800
     58 HN3A         1.1150     5.0550    -0.5290 hn         1 PI0       0.482800
     59 HN4          3.9790     0.9210     1.3950 hn         1 PI0       0.469800
     60 H5           1.7040    -0.9000     1.9450 h1         1 PI0       0.100700
     61 H3           2.6890     0.9690    -1.5400 hc         1 PI0       0.037033
     62 H3A          1.2030     1.8320    -1.0910 hc         1 PI0       0.037033
     63 H3B          2.5930     1.8230     0.0140 hc         1 PI0       0.037033
     64 H12          4.0850    -6.8040     1.2560 ha         1 PI0       0.143000
     65 H11          7.5170    -5.1880    -0.7040 ha         1 PI0       0.143000
     66 H13          6.4200    -2.9830    -0.8080 ha         1 PI0       0.134000
     67 HN2         -3.5910     8.0570     9.4490 hn         1 PI0       0.468800
     68 HN2A        -5.0290     8.6070     9.9970 hn         1 PI0       0.468800
     69 O30         -1.5210     0.7990     4.6010 o          1 PI0      -0.563100
     70 H7           2.9870    -4.5990     1.1520 ha         1 PI0       0.134000
     71 C26         -5.1320     7.2600     8.5500 ce         1 PI0       0.534800
     72 H33         -0.0380     4.6490    -1.6140 hn         1 PI0       0.482800
     73 H231        -4.5350     7.0960    10.3740 hn         1 PI0       0.468800
     74 N31         -1.9430     2.9200     5.0990 ns         1 PI0      -0.587900
     75 H10          6.3500    -7.0990     0.3280 ha         1 PI0       0.144000
     76 HN31        -1.7330     3.8870     4.9490 hn         1 PI0       0.312500
@<TRIPOS>BOND
     1     1     4 1
     2     1    27 1
     3     1    28 1
     4     2    14 1
     5     2    24 2
     6     2    25 1
     7     3    29 2
     8     4     5 1
     9     6    31 ar
    10     6    32 ar
    11     7    29 1
    12     7    31 1
    13     8    32 ar
    14     8    33 ar
    15     9    19 2
    16     9    20 1
    17     9    27 1
    18    10    11 ar
    19    10    22 ar
    20    11    21 ar
    21    12    13 1
    22    12    17 1
    23    12    20 1
    24    13    14 1
    25    15    16 ar
    26    15    21 ar
    27    16    22 ar
    28    71    21 1
    29    71    23 2
    30    71    35 1
    31    17    69 2
    32    17    74 1
    33    18    74 1
    34    18    22 1
    35    26    27 1
    36    26    29 1
    37    29    30 2
    38    31    34 ar
    39    33    34 ar
    40     1    36 1
    41     4    37 1
    42     4    38 1
    43     5    39 1
    44     5    40 1
    45     5    41 1
    46     6    70 1
    47     7    42 1
    48     7    43 1
    49     8    75 1
    50    10    44 1
    51    11    45 1
    52    12    46 1
    53    13    47 1
    54    13    48 1
    55    14    49 1
    56    14    50 1
    57    15    51 1
    58    16    52 1
    59    18    53 1
    60    18    54 1
    61    20    55 1
    62    74    76 1
    63    23    56 1
    64    25    57 1
    65    25    58 1
    66    26    59 1
    67    27    60 1
    68    28    61 1
    69    28    62 1
    70    28    63 1
    71    32    64 1
    72    33    65 1
    73    34    66 1
    74    35    67 1
    75    35    68 1
    76    72    25 1
    77    73    35 1
@<TRIPOS>SUBSTRUCTURE
     1 PI0         1 TEMP              0 ****  ****    0 ROOT
