@<TRIPOS>MOLECULE
molecule
   69    70     1     0     0
SMALL
bcc


@<TRIPOS>ATOM
      1 C1           0.0000     0.0000     0.0000 c3         1 PI2      -0.104400
      2 C2           2.0320     0.0000     1.4210 c          1 PI2       0.657100
      3 O3           1.7160    -0.8860     2.1860 o          1 PI2      -0.580100
      4 C4           1.5300     0.0000     0.0000 c3         1 PI2      -0.150400
      5 N5           2.8480     1.0120     1.8320 ns         1 PI2      -0.582900
      6 C6           3.2990     0.9480     3.2390 c3         1 PI2       0.032700
      7 C7           3.0620     2.2880     3.8860 c          1 PI2       0.657100
      8 O8           3.9010     3.1590     3.8010 o          1 PI2      -0.612100
      9 C9           4.7910     0.6100     3.2830 c3         1 PI2      -0.170400
     10 C10          5.0240    -0.7230     2.6220 c          1 PI2       0.466100
     11 O11          4.0900    -1.3420     2.1590 o          1 PI2      -0.369100
     12 N12          6.2720    -1.2280     2.5420 nz         1 PI2      -0.685400
     13 N13          1.9180     2.5190     4.5590 ns         1 PI2      -0.545900
     14 C14          1.6800     3.8190     5.1900 c3         1 PI2       0.101700
     15 C15          0.2230     4.2310     4.9620 c3         1 PI2      -0.041100
     16 C16         -0.2880     3.5650     3.7100 ca         1 PI2      -0.108300
     17 C17          0.1580     3.9910     2.4720 ca         1 PI2      -0.109000
     18 C18         -0.3030     3.3780     1.3240 ca         1 PI2      -0.159500
     19 C19         -1.1990     2.5300     3.8020 ca         1 PI2      -0.109000
     20 C20         -1.6630     1.9150     2.6540 ca         1 PI2      -0.159500
     21 C21         -1.2130     2.3360     1.4120 ca         1 PI2       0.100100
     22 O22         -1.6640     1.7280     0.2820 os         1 PI2      -0.299900
     23 C23         -0.5110     1.3600    -0.4750 c3         1 PI2       0.115400
     24 C24          1.9530     3.7160     6.6910 c3         1 PI2       0.139100
     25 O25          1.7170     4.9840     7.3070 oh         1 PI2      -0.577800
     26 C26          3.4070     3.3010     6.9180 c3         1 PI2       0.132800
     27 N27          3.6700     3.2030     8.3600 n7         1 PI2      -0.786200
     28 C28          5.0750     2.8020     8.5080 c3         1 PI2       0.147800
     29 C29          5.4190     2.6800     9.9930 c3         1 PI2      -0.078400
     30 C30          6.8820     2.2640    10.1470 c3         1 PI2      -0.077700
     31 C31          7.2250     2.1410    11.6330 c3         1 PI2      -0.087600
     32 C32          7.1030     0.9150     9.4590 c3         1 PI2      -0.087600
     33 H11         -0.3610    -0.1910     1.0030 hc         1 PI2       0.075700
     34 H12         -0.3610    -0.7740    -0.6670 hc         1 PI2       0.075700
     35 H41          1.8910     0.8840    -0.5110 hc         1 PI2       0.065200
     36 H42          1.8910    -0.8850    -0.5110 hc         1 PI2       0.065200
     37 HN5          3.3760     1.5340     1.1610 hn         1 PI2       0.328500
     38 H6           2.7380     0.1850     3.7660 h1         1 PI2       0.119700
     39 H91          5.1200     0.5650     4.3140 hc         1 PI2       0.110700
     40 H92          5.3500     1.3760     2.7580 hc         1 PI2       0.110700
     41 H121         6.3370    -1.8330     1.7480 hn         1 PI2       0.478467
     42 H122         6.4760    -1.7460     3.3730 hn         1 PI2       0.478467
     43 H13          1.2340     1.7930     4.6410 hn         1 PI2       0.330500
     44 H14          2.3380     4.5590     4.7520 h1         1 PI2       0.107700
     45 H151         0.1640     5.3070     4.8500 hc         1 PI2       0.068700
     46 H152        -0.3780     3.9220     5.8090 hc         1 PI2       0.068700
     47 H17          0.8240     4.8410     2.4010 ha         1 PI2       0.138500
     48 H18         -0.0120     3.7610     0.3530 ha         1 PI2       0.147000
     49 H19         -1.5910     2.2380     4.7680 ha         1 PI2       0.138500
     50 H20         -2.4180     1.1410     2.7220 ha         1 PI2       0.147000
     51 H231         0.2640     2.1050    -0.3380 h1         1 PI2       0.058700
     52 H232        -0.7730     1.3000    -1.5250 h1         1 PI2       0.058700
     53 H24          1.2940     2.9760     7.1280 h1         1 PI2       0.028700
     54 H25          1.1500     4.8710     8.0520 ho         1 PI2       0.415000
     55 H261         4.0670     4.0410     6.4800 h1         1 PI2       0.038200
     56 H262         3.5850     2.3390     6.4520 h1         1 PI2       0.038200
     57 H27          3.0790     2.5010     8.7600 hn         1 PI2       0.343800
     58 H281         5.2310     1.8460     8.0210 h1         1 PI2       0.027200
     59 H282         5.7130     3.5480     8.0500 h1         1 PI2       0.027200
     60 H291         5.2620     3.6350    10.4800 hc         1 PI2       0.054700
     61 H292         4.7810     1.9330    10.4510 hc         1 PI2       0.054700
     62 H30          7.5190     3.0120     9.6900 hc         1 PI2       0.052700
     63 H311         8.2700     1.8790    11.7420 hc         1 PI2       0.033700
     64 H312         6.6110     1.3710    12.0830 hc         1 PI2       0.033700
     65 H313         7.0370     3.0870    12.1270 hc         1 PI2       0.033700
     66 H321         7.9640     0.4240     9.8970 hc         1 PI2       0.033700
     67 H322         6.2260     0.2940     9.5930 hc         1 PI2       0.033700
     68 H323         7.2760     1.0730     8.4020 hc         1 PI2       0.033700
     69 H123         6.9280    -0.4800     2.4380 hn         1 PI2       0.478467
@<TRIPOS>BOND
     1     1     4 1
     2     1    23 1
     3     1    33 1
     4     1    34 1
     5     2     3 2
     6     2     4 1
     7     2     5 1
     8     4    35 1
     9     4    36 1
    10     5     6 1
    11     5    37 1
    12     6     7 1
    13     6     9 1
    14     6    38 1
    15     7     8 2
    16     7    13 1
    17     9    10 1
    18     9    39 1
    19     9    40 1
    20    10    11 2
    21    10    12 1
    22    12    41 1
    23    12    42 1
    24    13    14 1
    25    13    43 1
    26    14    15 1
    27    14    24 1
    28    14    44 1
    29    15    16 1
    30    15    45 1
    31    15    46 1
    32    16    17 ar
    33    16    19 ar
    34    17    18 ar
    35    17    47 1
    36    18    21 ar
    37    18    48 1
    38    19    20 ar
    39    19    49 1
    40    20    21 ar
    41    20    50 1
    42    21    22 1
    43    22    23 1
    44    23    51 1
    45    23    52 1
    46    24    25 1
    47    24    26 1
    48    24    53 1
    49    25    54 1
    50    26    27 1
    51    26    55 1
    52    26    56 1
    53    27    28 1
    54    27    57 1
    55    28    29 1
    56    28    58 1
    57    28    59 1
    58    29    30 1
    59    29    60 1
    60    29    61 1
    61    30    31 1
    62    30    32 1
    63    30    62 1
    64    31    63 1
    65    31    64 1
    66    31    65 1
    67    32    66 1
    68    32    67 1
    69    32    68 1
    70    69    12 1
@<TRIPOS>SUBSTRUCTURE
     1 PI2         1 TEMP              0 ****  ****    0 ROOT
