@<TRIPOS>MOLECULE
PI3
   70    71     1     0     0
SMALL
bcc


@<TRIPOS>ATOM
      1 C1           0.0000     0.0000     0.0000 c3         1 PI3      -0.062400
      2 C2           2.0330     0.0000     1.4200 c          1 PI3       0.577100
      3 O3           1.7160    -0.8870     2.1850 o          1 PI3      -0.638100
      4 C4           1.5300     0.0000     0.0000 c3         1 PI3      -0.097400
      5 N5           2.8480     1.0110     1.8320 ns         1 PI3      -0.190900
      6 C6           3.2990     0.9470     3.2380 c3         1 PI3      -0.070300
      7 C7           3.0620     2.2870     3.8860 c          1 PI3       0.553100
      8 O8           3.9000     3.1580     3.8010 o          1 PI3      -0.639100
      9 C9           4.7910     0.6100     3.2830 c3         1 PI3      -0.046700
     10 C10          5.2320     0.4410     4.7380 c3         1 PI3      -0.003100
     11 C11          5.0420    -0.6920     2.5200 c3         1 PI3      -0.003100
     12 N12          1.9180     2.5180     4.5590 ns         1 PI3      -0.183900
     13 C13          1.6790     3.8180     5.1910 c3         1 PI3      -0.007300
     14 C14          0.2220     4.2300     4.9630 c3         1 PI3       0.026900
     15 C15         -0.2890     3.5650     3.7110 ca         1 PI3      -0.123300
     16 C16          0.1570     3.9900     2.4740 ca         1 PI3      -0.075000
     17 C17         -0.3030     3.3780     1.3240 ca         1 PI3      -0.148000
     18 C18         -1.1990     2.5290     3.8020 ca         1 PI3      -0.075000
     19 C19         -1.6640     1.9130     2.6550 ca         1 PI3      -0.148000
     20 C20         -1.2140     2.3350     1.4120 ca         1 PI3       0.118100
     21 O21         -1.6640     1.7290     0.2830 os         1 PI3      -0.293900
     22 C22         -0.5120     1.3600    -0.4750 c3         1 PI3       0.172400
     23 C23          1.9520     3.7140     6.6920 c3         1 PI3       0.181100
     24 O24          1.7160     4.9820     7.3080 oh         1 PI3      -0.564800
     25 C25          3.4070     3.3000     6.9190 c3         1 PI3       0.100800
     26 N26          3.6700     3.2000     8.3600 n7         1 PI3      -0.567200
     27 C27          5.0750     2.8010     8.5080 c3         1 PI3       0.127800
     28 C28          5.4180     2.6780     9.9930 c3         1 PI3      -0.028400
     29 C29          6.8820     2.2620    10.1470 c3         1 PI3      -0.052700
     30 C30          7.2250     2.1400    11.6330 c3         1 PI3       0.003400
     31 C31          7.1040     0.9140     9.4590 c3         1 PI3       0.003400
     32 H11         -0.3610    -0.7740    -0.6660 hc         1 PI3       0.040700
     33 H12A        -0.3610    -0.1910     1.0030 hc         1 PI3       0.040700
     34 H41          1.8910    -0.8850    -0.5110 hc         1 PI3       0.033700
     35 H42          1.8910     0.8840    -0.5110 hc         1 PI3       0.033700
     36 HN5          2.8440     1.8870     1.3470 hn         1 PI3       0.188500
     37 H6           2.7390     0.1840     3.7650 h1         1 PI3       0.077700
     38 H9           5.3570     1.4120     2.8240 hc         1 PI3       0.049700
     39 H101         6.0410    -0.2780     4.7890 hc         1 PI3       0.008200
     40 H102         5.5700     1.3940     5.1260 hc         1 PI3       0.008200
     41 H103         4.3970     0.0860     5.3300 hc         1 PI3       0.008200
     42 H111         6.0630    -1.0160     2.6850 hc         1 PI3       0.008200
     43 H112         4.3600    -1.4550     2.8750 hc         1 PI3       0.008200
     44 H113         4.8820    -0.5270     1.4620 hc         1 PI3       0.008200
     45 H12          1.2330     1.7930     4.6400 hn         1 PI3       0.187500
     46 H13          2.3380     4.5590     4.7530 h1         1 PI3       0.081700
     47 H141         0.1630     5.3060     4.8520 hc         1 PI3       0.029700
     48 H142        -0.3790     3.9200     5.8100 hc         1 PI3       0.029700
     49 H16          0.8380     4.8290     2.4030 ha         1 PI3       0.111500
     50 H17         -0.0130     3.7620     0.3540 ha         1 PI3       0.121500
     51 H18         -1.5760     2.2230     4.7700 ha         1 PI3       0.111500
     52 H19         -2.4260     1.1470     2.7230 ha         1 PI3       0.121500
     53 H221         0.2630     2.1050    -0.3390 h1         1 PI3       0.020700
     54 H222        -0.7740     1.3000    -1.5240 h1         1 PI3       0.020700
     55 H23          1.2940     2.9730     7.1280 h1         1 PI3      -0.005300
     56 H24          1.1150     4.8750     8.0260 ho         1 PI3       0.391000
     57 H251         4.0660     4.0410     6.4820 h1         1 PI3       0.029700
     58 H252         3.5850     2.3380     6.4520 h1         1 PI3       0.029700
     59 H26          3.0790     2.4980     8.7590 hn         1 PI3       0.242800
     60 H271         5.7130     3.5490     8.0510 h1         1 PI3       0.014200
     61 H272         5.2320     1.8460     8.0210 h1         1 PI3       0.014200
     62 H281         5.2600     3.6320    10.4810 hc         1 PI3       0.020200
     63 H282         4.7810     1.9300    10.4500 hc         1 PI3       0.020200
     64 H29          7.5200     3.0100     9.6900 hc         1 PI3       0.027700
     65 H301         6.6290     1.3510    12.0770 hc         1 PI3       0.003033
     66 H302         7.0110     3.0780    12.1310 hc         1 PI3       0.003033
     67 H303         8.2760     1.9040    11.7430 hc         1 PI3       0.003033
     68 H311         6.2320     0.2880     9.6020 hc         1 PI3       0.003033
     69 H312         7.9720     0.4280     9.8880 hc         1 PI3       0.003033
     70 H313         7.2650     1.0710     8.4000 hc         1 PI3       0.003033
@<TRIPOS>BOND
     1     1     4 1   
     2     1    22 1   
     3     1    32 1   
     4     1    33 1   
     5     2     3 2   
     6     2     4 1   
     7     2     5 1   
     8     4    34 1   
     9     4    35 1   
    10     5     6 1   
    11     5    36 1   
    12     6     7 1   
    13     6     9 1   
    14     6    37 1   
    15     7     8 2   
    16     7    12 1   
    17     9    10 1   
    18     9    11 1   
    19     9    38 1   
    20    10    39 1   
    21    10    40 1   
    22    10    41 1   
    23    11    42 1   
    24    11    43 1   
    25    11    44 1   
    26    12    13 1   
    27    12    45 1   
    28    13    14 1   
    29    13    23 1   
    30    13    46 1   
    31    14    15 1   
    32    14    47 1   
    33    14    48 1   
    34    15    16 ar  
    35    15    18 ar  
    36    16    17 ar  
    37    16    49 1   
    38    17    20 ar  
    39    17    50 1   
    40    18    19 ar  
    41    18    51 1   
    42    19    20 ar  
    43    19    52 1   
    44    20    21 1   
    45    21    22 1   
    46    22    53 1   
    47    22    54 1   
    48    23    24 1   
    49    23    25 1   
    50    23    55 1   
    51    24    56 1   
    52    25    26 1   
    53    25    57 1   
    54    25    58 1   
    55    26    27 1   
    56    26    59 1   
    57    27    28 1   
    58    27    60 1   
    59    27    61 1   
    60    28    29 1   
    61    28    62 1   
    62    28    63 1   
    63    29    30 1   
    64    29    31 1   
    65    29    64 1   
    66    30    65 1   
    67    30    66 1   
    68    30    67 1   
    69    31    68 1   
    70    31    69 1   
    71    31    70 1   
@<TRIPOS>SUBSTRUCTURE
     1 PI3         1 TEMP              0 ****  ****    0 ROOT
