@<TRIPOS>MOLECULE
molecule
   83    85     1     0     0
SMALL
bcc


@<TRIPOS>ATOM
      1 C1           0.0000     0.0000     0.0000 c3         1 PI4      -0.104400
      2 C2           2.0310     0.0000     1.4210 c          1 PI4       0.653100
      3 O3           1.7150    -0.8850     2.1860 o          1 PI4      -0.575100
      4 C4           1.5290     0.0000     0.0000 c3         1 PI4      -0.150400
      5 N5           2.8480     1.0120     1.8320 ns         1 PI4      -0.582900
      6 C6           3.2990     0.9480     3.2390 c3         1 PI4       0.032700
      7 C7           3.0630     2.2870     3.8860 c          1 PI4       0.658100
      8 O8           3.9020     3.1590     3.8010 o          1 PI4      -0.621100
      9 C9           4.7900     0.6100     3.2840 c3         1 PI4      -0.172400
     10 C10          5.0080    -0.7750     2.7320 c          1 PI4       0.467100
     11 O11          4.0640    -1.4270     2.3400 o          1 PI4      -0.370100
     12 N12          6.2530    -1.2900     2.6730 nz         1 PI4      -0.684400
     13 N13          1.9190     2.5200     4.5590 ns         1 PI4      -0.538900
     14 C14          1.6810     3.8210     5.1900 c3         1 PI4       0.086700
     15 C15          0.2240     4.2340     4.9610 c3         1 PI4      -0.047100
     16 C16         -0.2880     3.5670     3.7090 ca         1 PI4      -0.108300
     17 C17          0.1580     3.9920     2.4720 ca         1 PI4      -0.107000
     18 C18         -0.3030     3.3800     1.3220 ca         1 PI4      -0.160000
     19 C19         -1.2000     2.5320     3.8000 ca         1 PI4      -0.107000
     20 C20         -1.6630     1.9170     2.6530 ca         1 PI4      -0.160000
     21 C21         -1.2130     2.3380     1.4100 ca         1 PI4       0.101100
     22 O22         -1.6640     1.7300     0.2820 os         1 PI4      -0.300900
     23 C23         -0.5100     1.3610    -0.4770 c3         1 PI4       0.115400
     24 C24          1.9520     3.7180     6.6910 c3         1 PI4       0.145100
     25 O25          1.8580     5.0150     7.2830 oh         1 PI4      -0.597800
     26 C26          3.3570     3.1550     6.9170 c3         1 PI4       0.126800
     27 N27          3.6230     3.0660     8.3590 n3         1 PI4      -0.640600
     28 C28          4.7950     2.1990     8.5170 c3         1 PI4       0.077500
     29 C29          5.1390     2.0610    10.0010 c3         1 PI4      -0.067400
     30 C30          5.4820     3.4420    10.5700 c3         1 PI4      -0.082400
     31 C31          4.3120     4.3940    10.3000 c3         1 PI4      -0.081400
     32 C32          4.0120     4.4100     8.8000 c3         1 PI4       0.122800
     33 C33          4.4920     0.8390     7.9440 c          1 PI4       0.661100
     34 O34          3.3460     0.5230     7.7050 o          1 PI4      -0.596100
     35 C35          5.1930    -1.3940     7.2690 c3         1 PI4       0.120400
     36 C36          6.4960    -2.1860     7.1340 c3         1 PI4      -0.101767
     37 C37          4.4590    -1.3880     5.9270 c3         1 PI4      -0.101767
     38 C38          4.3080    -2.0490     8.3320 c3         1 PI4      -0.101767
     39 N39          5.4950    -0.0270     7.6990 ns         1 PI4      -0.596900
     40 H11         -0.3610    -0.1900     1.0040 hc         1 PI4       0.075700
     41 H12         -0.3610    -0.7740    -0.6660 hc         1 PI4       0.075700
     42 H41          1.8900    -0.8850    -0.5110 hc         1 PI4       0.064700
     43 H42          1.8900     0.8840    -0.5110 hc         1 PI4       0.064700
     44 HN5          3.3770     1.5320     1.1610 hn         1 PI4       0.326500
     45 H6           2.7380     0.1860     3.7670 h1         1 PI4       0.125700
     46 H91          5.1390     0.6490     4.3090 hc         1 PI4       0.112200
     47 H92          5.3410     1.3270     2.6880 hc         1 PI4       0.112200
     48 H121         6.8780    -0.7110     3.1970 hn         1 PI4       0.476800
     49 H122         6.5540    -1.3270     1.7190 hn         1 PI4       0.476800
     50 H13          1.2290     1.7980     4.6320 hn         1 PI4       0.335500
     51 H14          2.3400     4.5610     4.7530 h1         1 PI4       0.102700
     52 H151         0.1660     5.3100     4.8480 hc         1 PI4       0.065200
     53 H152        -0.3770     3.9260     5.8070 hc         1 PI4       0.065200
     54 H17          0.8390     4.8310     2.4020 ha         1 PI4       0.139000
     55 H18         -0.0110     3.7630     0.3520 ha         1 PI4       0.146500
     56 H19         -1.5860     2.2350     4.7680 ha         1 PI4       0.139000
     57 H20         -2.4080     1.1330     2.7220 ha         1 PI4       0.146500
     58 H231         0.2650     2.1050    -0.3410 h1         1 PI4       0.058200
     59 H232        -0.7730     1.3000    -1.5260 h1         1 PI4       0.058200
     60 H24          1.2220     3.0590     7.1450 h1         1 PI4       0.059700
     61 H25          1.0030     5.1240     7.6650 ho         1 PI4       0.412000
     62 H261         3.4260     2.1680     6.4750 h1         1 PI4       0.049200
     63 H262         4.0870     3.8090     6.4550 h1         1 PI4       0.049200
     64 H28          5.6370     2.6360     7.9940 h1         1 PI4       0.033700
     65 H291         5.9920     1.4030    10.1140 hc         1 PI4       0.055700
     66 H292         4.2880     1.6530    10.5330 hc         1 PI4       0.055700
     67 H301         6.3750     3.8200    10.0880 hc         1 PI4       0.046200
     68 H302         5.6450     3.3630    11.6380 hc         1 PI4       0.046200
     69 H311         4.5780     5.3930    10.6250 hc         1 PI4       0.057200
     70 H312         3.4370     4.0530    10.8400 hc         1 PI4       0.057200
     71 H321         4.8970     4.7230     8.2600 h1         1 PI4       0.059700
     72 H322         3.2000     5.1010     8.6040 h1         1 PI4       0.059700
     73 H361         6.2810    -3.1680     6.7290 hc         1 PI4       0.043033
     74 H362         7.1700    -1.6610     6.4690 hc         1 PI4       0.043033
     75 H363         6.9580    -2.2900     8.1080 hc         1 PI4       0.043033
     76 H371         5.1420    -1.0820     5.1430 hc         1 PI4       0.043033
     77 H372         4.0870    -2.3820     5.7140 hc         1 PI4       0.043033
     78 H373         3.6290    -0.6930     5.9730 hc         1 PI4       0.043033
     79 H381         4.3140    -3.1230     8.1950 hc         1 PI4       0.043033
     80 H382         4.6880    -1.8080     9.3170 hc         1 PI4       0.043033
     81 H383         3.2940    -1.6780     8.2350 hc         1 PI4       0.043033
     82 H39          6.4460     0.2610     7.8200 hn         1 PI4       0.315500
     83 H123         6.2530    -2.2080     3.0710 hn         1 PI4       0.476800
@<TRIPOS>BOND
     1     1     4 1
     2     1    23 1
     3     1    40 1
     4     1    41 1
     5     2     3 2
     6     2     4 1
     7     2     5 1
     8     4    42 1
     9     4    43 1
    10     5     6 1
    11     5    44 1
    12     6     7 1
    13     6     9 1
    14     6    45 1
    15     7     8 2
    16     7    13 1
    17     9    10 1
    18     9    46 1
    19     9    47 1
    20    10    11 2
    21    10    12 1
    22    12    48 1
    23    12    49 1
    24    13    14 1
    25    13    50 1
    26    14    15 1
    27    14    24 1
    28    14    51 1
    29    15    16 1
    30    15    52 1
    31    15    53 1
    32    16    17 ar
    33    16    19 ar
    34    17    18 ar
    35    17    54 1
    36    18    21 ar
    37    18    55 1
    38    19    20 ar
    39    19    56 1
    40    20    21 ar
    41    20    57 1
    42    21    22 1
    43    22    23 1
    44    23    58 1
    45    23    59 1
    46    24    25 1
    47    24    26 1
    48    24    60 1
    49    25    61 1
    50    26    27 1
    51    26    62 1
    52    26    63 1
    53    27    28 1
    54    27    32 1
    55    28    29 1
    56    28    33 1
    57    28    64 1
    58    29    30 1
    59    29    65 1
    60    29    66 1
    61    30    31 1
    62    30    67 1
    63    30    68 1
    64    31    32 1
    65    31    69 1
    66    31    70 1
    67    32    71 1
    68    32    72 1
    69    33    34 2
    70    33    39 1
    71    35    36 1
    72    35    37 1
    73    35    38 1
    74    35    39 1
    75    36    73 1
    76    36    74 1
    77    36    75 1
    78    37    76 1
    79    37    77 1
    80    37    78 1
    81    38    79 1
    82    38    80 1
    83    38    81 1
    84    39    82 1
    85    83    12 1
@<TRIPOS>SUBSTRUCTURE
     1 PI4         1 TEMP              0 ****  ****    0 ROOT
