@<TRIPOS>MOLECULE
molecule
   91    93     1     0     0
SMALL
bcc


@<TRIPOS>ATOM
      1 C4           0.0000     0.0000     0.0000 c3         1 PI9      -0.082400
      2 C5           1.5300     0.0000     0.0000 c3         1 PI9      -0.158400
      3 C6           2.0330     0.0000     1.4210 c          1 PI9       0.656100
      4 O1           1.2930    -0.2940     2.3350 o          1 PI9      -0.610100
      5 C3          -0.5100     1.3280    -0.5610 c3         1 PI9      -0.081400
      6 C2          -0.7370     2.3140     0.5870 c3         1 PI9      -0.115400
      7 N1           3.3320     0.3360     1.6620 ns         1 PI9      -0.564900
      8 C7           3.7580     0.3140     3.0760 c3         1 PI9       0.029700
      9 C8           4.7270    -0.8480     3.3010 c3         1 PI9      -0.086700
     10 C10          4.0320    -2.1660     2.9580 c3         1 PI9      -0.092100
     11 C9           5.9530    -0.6690     2.4030 c3         1 PI9      -0.092100
     12 C11          4.4430     1.6170     3.4000 c          1 PI9       0.656100
     13 O2           5.4580     1.9280     2.8180 o          1 PI9      -0.614100
     14 N2           3.9260     2.4320     4.3370 ns         1 PI9      -0.572900
     15 C12          4.5990     3.6900     4.6690 c3         1 PI9       0.091700
     16 C13          3.5520     4.7490     5.0230 c3         1 PI9      -0.045100
     17 C14          2.4490     4.7230     3.9950 ca         1 PI9      -0.109300
     18 C15          2.7570     4.8330     2.6510 ca         1 PI9      -0.101500
     19 C16          1.7500     4.8090     1.7070 ca         1 PI9      -0.161500
     20 C19          1.1330     4.5870     4.3960 ca         1 PI9      -0.101500
     21 C18          0.1230     4.5630     3.4570 ca         1 PI9      -0.161500
     22 C17          0.4270     4.6740     2.1070 ca         1 PI9       0.108100
     23 O3          -0.5650     4.6500     1.1800 os         1 PI9      -0.312900
     24 C1          -0.1870     3.6870     0.1950 c3         1 PI9       0.114400
     25 C20          5.5260     3.4700     5.8650 c3         1 PI9       0.104100
     26 O4           6.1820     4.6970     6.1910 oh         1 PI9      -0.565800
     27 C21          6.5720     2.4110     5.5130 c3         1 PI9       0.242800
     28 N3           7.4610     2.2010     6.6580 n3         1 PI9      -0.818500
     29 C22          7.1320     1.1890     7.6640 c3         1 PI9       0.234800
     30 C23          5.7810     1.5230     8.3010 c3         1 PI9      -0.056400
     31 C24          5.4370     0.4650     9.3510 c3         1 PI9      -0.229700
     32 C26          4.0860     0.7980     9.9880 c3         1 PI9      -0.051600
     33 C25          5.3620    -0.9100     8.6850 c3         1 PI9      -0.051600
     34 S            8.8370     3.1080     6.8150 sy         1 PI9       1.422200
     35 O6           8.6100     4.2880     6.0560 o          1 PI9      -0.624300
     36 O5           9.1680     3.0710     8.1970 o          1 PI9      -0.624300
     37 C27         10.1330     2.2480     5.9900 ca         1 PI9      -0.327500
     38 C32         10.3760     2.4870     4.6500 ca         1 PI9      -0.024000
     39 C28         10.9080     1.3370     6.6840 ca         1 PI9      -0.024000
     40 C31         11.3910     1.8150     3.9990 ca         1 PI9      -0.171000
     41 C29         11.9210     0.6570     6.0390 ca         1 PI9      -0.171000
     42 C30         12.1680     0.8950     4.6920 ca         1 PI9       0.217600
     43 N4          13.1950     0.2130     4.0380 nv         1 PI9      -0.997200
     44 H41         -0.3610    -0.1260     1.0140 hc         1 PI9       0.065200
     45 H42         -0.3610    -0.8150    -0.6160 hc         1 PI9       0.065200
     46 H51          1.8910    -0.8850    -0.5110 hc         1 PI9       0.064200
     47 H52          1.8910     0.8840    -0.5110 hc         1 PI9       0.064200
     48 H31         -1.4440     1.1640    -1.0850 hc         1 PI9       0.041700
     49 H32          0.2220     1.7350    -1.2480 hc         1 PI9       0.041700
     50 H21         -1.7980     2.3940     0.7900 hc         1 PI9       0.059700
     51 H22         -0.2250     1.9600     1.4740 hc         1 PI9       0.059700
     52 HN11         4.0130     0.2570     0.9330 hn         1 PI9       0.332500
     53 H71          2.8910     0.1920     3.7140 h1         1 PI9       0.096700
     54 H81          5.0390    -0.8620     4.3390 hc         1 PI9       0.054700
     55 H101         4.5900    -2.9900     3.3870 hc         1 PI9       0.042533
     56 H102         3.9880    -2.2820     1.8820 hc         1 PI9       0.042533
     57 H103         3.0270    -2.1610     3.3630 hc         1 PI9       0.042533
     58 H91          6.5620    -1.5650     2.4410 hc         1 PI9       0.042533
     59 H92          5.6320    -0.4930     1.3840 hc         1 PI9       0.042533
     60 H93          6.5340     0.1770     2.7500 hc         1 PI9       0.042533
     61 HN21         3.0850     2.1740     4.8150 hn         1 PI9       0.320500
     62 H121         5.1800     4.0250     3.8180 h1         1 PI9       0.103700
     63 H131         3.1400     4.5380     6.0020 hc         1 PI9       0.059200
     64 H132         4.0170     5.7280     5.0300 hc         1 PI9       0.059200
     65 H151         3.7850     4.9770     2.3420 ha         1 PI9       0.135500
     66 H161         1.9840     4.9780     0.6630 ha         1 PI9       0.142000
     67 H191         0.8940     4.5120     5.4500 ha         1 PI9       0.135500
     68 H181        -0.9110     4.4920     3.7740 ha         1 PI9       0.142000
     69 H11          0.8940     3.6390     0.1320 h1         1 PI9       0.054200
     70 H12         -0.5920     3.9760    -0.7680 h1         1 PI9       0.054200
     71 H20          4.9450     3.1350     6.7150 h1         1 PI9       0.032700
     72 HO4          5.7640     5.0880     6.9400 ho         1 PI9       0.396000
     73 H211         6.0750     1.4800     5.2670 h1         1 PI9       0.069200
     74 H212         7.1520     2.7450     4.6610 h1         1 PI9       0.069200
     75 H221         7.8980     1.1770     8.4290 h1         1 PI9       0.063700
     76 H222         7.0780     0.2150     7.1920 h1         1 PI9       0.063700
     77 H231         5.8350     2.4960     8.7730 hc         1 PI9       0.034700
     78 H232         5.0140     1.5350     7.5360 hc         1 PI9       0.034700
     79 H241         4.6710     0.4760     8.5860 hc         1 PI9       0.113700
     80 H261         4.2420     1.4180    10.8620 hc         1 PI9       0.032200
     81 H262         3.5880    -0.1190    10.2800 hc         1 PI9       0.032200
     82 H263         3.4710     1.3300     9.2720 hc         1 PI9       0.032200
     83 H251         6.3630    -1.2660     8.4770 hc         1 PI9       0.032200
     84 H252         4.8060    -0.8330     7.7590 hc         1 PI9       0.032200
     85 H253         4.8620    -1.6060     9.3490 hc         1 PI9       0.032200
     86 H321         9.7700     3.2050     4.1100 ha         1 PI9       0.151000
     87 H281        10.7160     1.1520     7.7340 ha         1 PI9       0.151000
     88 H311        11.5800     2.0030     2.9490 ha         1 PI9       0.140500
     89 H291        12.5270    -0.0580     6.5830 ha         1 PI9       0.140500
     90 HN41        13.0120    -0.6670     3.5990 hn         1 PI9       0.432300
     91 HN42        14.1140     0.6090     4.0000 hn         1 PI9       0.432300
@<TRIPOS>BOND
     1     1     2 1
     2     1     5 1
     3     1    44 1
     4     1    45 1
     5     2     3 1
     6     2    46 1
     7     2    47 1
     8     3     4 2
     9     3     7 1
    10     5     6 1
    11     5    48 1
    12     5    49 1
    13     6    24 1
    14     6    50 1
    15     6    51 1
    16     7     8 1
    17     7    52 1
    18     8     9 1
    19     8    12 1
    20     8    53 1
    21     9    10 1
    22     9    11 1
    23     9    54 1
    24    10    55 1
    25    10    56 1
    26    10    57 1
    27    11    58 1
    28    11    59 1
    29    11    60 1
    30    12    13 2
    31    12    14 1
    32    14    15 1
    33    14    61 1
    34    15    16 1
    35    15    25 1
    36    15    62 1
    37    16    17 1
    38    16    63 1
    39    16    64 1
    40    17    18 ar
    41    17    20 ar
    42    18    19 ar
    43    18    65 1
    44    19    22 ar
    45    19    66 1
    46    20    21 ar
    47    20    67 1
    48    21    22 ar
    49    21    68 1
    50    22    23 1
    51    23    24 1
    52    24    69 1
    53    24    70 1
    54    25    26 1
    55    25    27 1
    56    25    71 1
    57    26    72 1
    58    27    28 1
    59    27    73 1
    60    27    74 1
    61    28    29 1
    62    28    34 1
    63    29    30 1
    64    29    75 1
    65    29    76 1
    66    30    31 1
    67    30    77 1
    68    30    78 1
    69    31    32 1
    70    31    33 1
    71    31    79 1
    72    32    80 1
    73    32    81 1
    74    32    82 1
    75    33    83 1
    76    33    84 1
    77    33    85 1
    78    34    35 2
    79    34    36 2
    80    34    37 1
    81    37    38 ar
    82    37    39 ar
    83    38    40 ar
    84    38    86 1
    85    39    41 ar
    86    39    87 1
    87    40    42 ar
    88    40    88 1
    89    41    42 ar
    90    41    89 1
    91    42    43 1
    92    43    90 1
    93    43    91 1
@<TRIPOS>SUBSTRUCTURE
     1 PI9         1 TEMP              0 ****  ****    0 ROOT
