@<TRIPOS>MOLECULE
molecule
   64    64     1     0     0
SMALL
bcc


@<TRIPOS>ATOM
      1 C1           0.0000     0.0000     0.0000 c3         1 PIB       0.168100
      2 C2           1.5290     0.0000     0.0000 c3         1 PIB       0.123100
      3 C3           2.0400     0.0000     1.4420 c3         1 PIB       0.173100
      4 C4           1.5310    -1.2470     2.1640 c3         1 PIB       0.126100
      5 C5           0.0010    -1.2470     2.1650 c3         1 PIB       0.097100
      6 C6          -0.5100    -1.2480     0.7230 c3         1 PIB       0.129100
      7 O1          -0.4780    -0.0000    -1.3470 os         1 PIB      -0.542200
      8 O2           2.0050    -1.1670    -0.6730 oh         1 PIB      -0.628800
      9 O3           3.4690    -0.0010     1.4410 os         1 PIB      -0.528200
     10 O4           2.0090    -1.2470     3.5110 oh         1 PIB      -0.547800
     11 O5          -0.4760    -2.4130     2.8400 oh         1 PIB      -0.643800
     12 O6          -1.9390    -1.2470     0.7230 oh         1 PIB      -0.579800
     13 P1          -1.3590     1.3340    -1.5290 p5         1 PIB       1.248800
     14 O11         -0.4400     2.6250    -1.2490 o          1 PIB      -0.798500
     15 O12         -2.4870     1.3150    -0.5720 o          1 PIB      -0.798500
     16 O13         -1.9310     1.3980    -3.0310 os         1 PIB      -0.537200
     17 P3           3.9350     1.3350     2.2100 p5         1 PIB       1.145900
     18 O31          5.5440     1.4000     2.2470 o          1 PIB      -0.908833
     19 O32          3.4120     1.3160     3.5930 o          1 PIB      -0.908833
     20 O33          3.3640     2.6270     1.4380 o          1 PIB      -0.908833
     21 C7          -2.7000     2.5970    -3.1300 c3         1 PIB       0.167400
     22 C8          -3.2760     2.7200    -4.5420 c3         1 PIB       0.155100
     23 C9          -4.0990     4.0050    -4.6490 c3         1 PIB       0.127400
     24 C10         -5.4060     5.1770    -6.3140 c          1 PIB       0.635100
     25 C11         -5.9740     5.2980    -7.7050 c3         1 PIB      -0.126400
     26 C12         -6.7970     6.5830    -7.8100 c3         1 PIB      -0.074400
     27 C13         -7.3740     6.7050    -9.2220 c3         1 PIB      -0.095100
     28 C15         -5.1370    -0.0630    -6.3640 c3         1 PIB      -0.127400
     29 C16         -5.1080    -0.3690    -7.8620 c3         1 PIB      -0.073400
     30 C17         -6.0040    -1.5740    -8.1550 c3         1 PIB      -0.095100
     31 O14         -4.1260     1.5770    -4.8200 os         1 PIB      -0.403900
     32 O15         -4.6460     4.1210    -5.9880 os         1 PIB      -0.425900
     33 O16         -5.6380     6.0310    -5.4920 o          1 PIB      -0.567000
     34 O17         -3.6630     1.6690    -6.9770 o          1 PIB      -0.572000
     35 HC1         -0.3580     0.8840     0.5140 h1         1 PIB       0.104700
     36 HC2          1.8880     0.8870    -0.5080 h1         1 PIB       0.105700
     37 HC3          1.6750     0.8830     1.9520 h1         1 PIB       0.106700
     38 HC4          1.8900    -2.1310     1.6490 h1         1 PIB       0.030700
     39 HC5         -0.3570    -0.3590     2.6720 h1         1 PIB       0.067700
     40 HC6         -0.1450    -2.1320     0.2130 h1         1 PIB       0.039700
     41 HO2          2.5960    -0.9130    -1.3620 ho         1 PIB       0.387000
     42 HO4          2.3390    -2.1030     3.7280 ho         1 PIB       0.358000
     43 HO5         -0.9380    -2.1580     3.6210 ho         1 PIB       0.385000
     44 HO6         -2.2540    -2.1230     0.5690 ho         1 PIB       0.362000
     45 HC71        -3.5090     2.5670    -2.4110 h1         1 PIB       0.072200
     46 HC72        -2.0660     3.4510    -2.9240 h1         1 PIB       0.072200
     47 HC8         -2.4660     2.7500    -5.2610 h1         1 PIB       0.080700
     48 HC91        -4.9090     3.9760    -3.9300 h1         1 PIB       0.062700
     49 HC92        -3.4640     4.8580    -4.4430 h1         1 PIB       0.062700
     50 H111        -6.6090     4.4450    -7.9110 hc         1 PIB       0.067700
     51 H112        -5.1640     5.3280    -8.4240 hc         1 PIB       0.067700
     52 H121        -7.6070     6.5530    -7.0910 hc         1 PIB       0.056200
     53 H122        -6.1620     7.4370    -7.6040 hc         1 PIB       0.056200
     54 H131        -6.5990     6.4900    -9.9480 hc         1 PIB       0.027700
     55 H132        -8.1870     5.9990    -9.3420 hc         1 PIB       0.027700
     56 H133        -7.7440     7.7110    -9.3760 hc         1 PIB       0.027700
     57 H151        -6.1530     0.1600    -6.0600 hc         1 PIB       0.068700
     58 H152        -4.7760    -0.9230    -5.8130 hc         1 PIB       0.068700
     59 H161        -4.0930    -0.5930    -8.1660 hc         1 PIB       0.053200
     60 H162        -5.4690     0.4910    -8.4140 hc         1 PIB       0.053200
     61 H171        -6.9970    -1.3890    -7.7630 hc         1 PIB       0.026700
     62 H172        -5.5880    -2.4560    -7.6830 hc         1 PIB       0.026700
     63 H173        -6.0620    -1.7300    -9.2250 hc         1 PIB       0.026700
     64 C14         -4.2550     1.1240    -6.0760 c          1 PIB       0.643100
@<TRIPOS>BOND
     1     1     2 1
     2     1     6 1
     3     1     7 1
     4     1    35 1
     5     2     3 1
     6     2     8 1
     7     2    36 1
     8     3     4 1
     9     3     9 1
    10     3    37 1
    11     4     5 1
    12     4    10 1
    13     4    38 1
    14     5     6 1
    15     5    11 1
    16     5    39 1
    17     6    12 1
    18     6    40 1
    19     7    13 1
    20     8    41 1
    21     9    17 1
    22    10    42 1
    23    11    43 1
    24    12    44 1
    25    13    14 1
    26    13    15 1
    27    13    16 1
    28    16    21 1
    29    17    18 1
    30    17    19 1
    31    17    20 1
    32    21    22 1
    33    21    45 1
    34    21    46 1
    35    22    23 1
    36    22    31 1
    37    22    47 1
    38    23    32 1
    39    23    48 1
    40    23    49 1
    41    24    25 1
    42    24    32 1
    43    24    33 2
    44    25    26 1
    45    25    50 1
    46    25    51 1
    47    26    27 1
    48    26    52 1
    49    26    53 1
    50    27    54 1
    51    27    55 1
    52    27    56 1
    53    64    28 1
    54    64    31 1
    55    64    34 2
    56    28    29 1
    57    28    57 1
    58    28    58 1
    59    29    30 1
    60    29    59 1
    61    29    60 1
    62    30    61 1
    63    30    62 1
    64    30    63 1
@<TRIPOS>SUBSTRUCTURE
     1 PIB         1 TEMP              0 ****  ****    0 ROOT
