@<TRIPOS>MOLECULE
PIB
   64    61     1     0     0
SMALL
bcc


@<TRIPOS>ATOM
      1 C1        151.9500  -98.3040  213.5300 c2        1 PIB     -0.196200
      2 C2        152.6900  -99.6030  213.5960 c3        1 PIB      0.160300
      3 C3        151.8130 -100.8640  213.3510 c3        1 PIB      0.175100
      4 C4        150.6990 -100.5230  212.3320 c3        1 PIB      0.117100
      5 C5        149.8020  -99.4260  212.9450 c3        1 PIB      0.132300
      6 C6        150.6420  -98.2190  213.2360 c2        1 PIB      0.031900
      7 O1        -91.9720   61.4130 -134.0230 oh        1 PIB     -0.774400
      8 O2        153.7750  -99.5160  212.6760 oh        1 PIB     -0.654800
      9 O3        152.6010 -101.8810  212.8780 os        1 PIB     -0.559200
     10 O4        149.8740 -101.6060  211.9900 oh        1 PIB     -0.701800
     11 O5        148.7310  -99.0570  212.0770 oh        1 PIB     -0.661800
     12 O6        150.0280  -96.9750  213.2430 oh        1 PIB     -0.547100
     13 P1        -93.3720   62.2320 -134.1490 p5        1 PIB      1.445800
     14 O11       -94.4030   61.4190 -134.8210 o         1 PIB     -0.843000
     15 O12       -92.9640   63.6150 -134.4740 o         1 PIB     -0.843000
     16 O13       -93.7000   62.2610 -132.5180 os        1 PIB     -0.594200
     17 P3        152.4490 -103.3650  213.8000 p5        1 PIB      1.318900
     18 O31       153.5220 -104.2300  213.2180 o         1 PIB     -0.913167
     19 O32       151.0190 -103.6890  213.4290 o         1 PIB     -0.913167
     20 O33       152.6310 -102.8560  215.1990 o         1 PIB     -0.913167
     21 C7        -94.9200   61.7390 -132.0920 c3        1 PIB      0.209600
     22 C8        -95.7730   62.8260 -131.5190 c2        1 PIB     -0.237200
     23 C9        -97.0960   62.8760 -131.7040 c2        1 PIB     -0.013900
     24 C10       -97.4390   65.1240 -131.0390 c         1 PIB      0.619900
     25 C11       -97.2720   59.8640 -134.4980 cx        1 PIB     -0.145733
     26 C12       -98.5200   60.6740 -134.2970 cx        1 PIB     -0.145733
     27 C13       -98.4280   59.7050 -135.4420 cx        1 PIB     -0.145733
     28 C15       -92.2990   66.2060 -132.9120 c3        1 PIB     -0.172100
     29 C16       -89.6030   60.9250 -131.7900 c2        1 PIB     -0.229500
     30 C17       -89.7270   62.1560 -131.3120 c2        1 PIB     -0.229500
     31 O14       -92.3230   64.4020 -131.3360 oh        1 PIB     -0.619100
     32 O15       -97.9300   63.8390 -131.1450 os        1 PIB     -0.377200
     33 O16       -98.2420   65.8850 -130.4990 o         1 PIB     -0.530000
     34 O17       -94.1940   65.5790 -131.4780 o         1 PIB     -0.625000
     35 HC1       -91.2470   61.9810 -133.7870 ho        1 PIB      0.433000
     36 HC2       152.5450  -97.4040  213.7360 ha        1 PIB      0.111000
     37 HC3       153.1420  -99.7050  214.6270 h1        1 PIB      0.046700
     38 HC4       151.3310 -101.1570  214.3320 h1        1 PIB      0.067700
     39 HC5       151.1570 -100.1320  211.3810 h1        1 PIB      0.028700
     40 HC6       149.3370  -99.8030  213.9010 h1        1 PIB      0.058700
     41 HO2       153.9260 -100.4180  212.3460 ho        1 PIB      0.446000
     42 HO4       150.2440 -102.4270  212.4320 ho        1 PIB      0.515000
     43 HO5       148.5800  -99.8210  211.5050 ho        1 PIB      0.433000
     44 HO6       149.1840  -97.0780  212.7820 ho        1 PIB      0.417000
     45 HC71      -92.9330   63.7280 -130.9860 ho        1 PIB      0.462000
     46 HC72      -95.4420   61.2060 -132.9400 h1        1 PIB      0.046700
     47 HC8       -94.7100   60.9960 -131.2670 h1        1 PIB      0.046700
     48 HC91      -95.2200   63.6050 -130.9660 ha        1 PIB      0.148000
     49 HC92      -97.7050   62.1480 -132.2650 h4        1 PIB      0.166000
     50 H111      -96.4280   65.3490 -131.4330 h5        1 PIB      0.102200
     51 H112      -96.3440   60.3690 -134.8470 hc        1 PIB      0.072867
     52 H121      -97.0500   59.0470 -133.7890 hc        1 PIB      0.072867
     53 H122      -98.4920   61.7570 -134.5090 hc        1 PIB      0.072867
     54 H131      -99.1890   60.4390 -133.4510 hc        1 PIB      0.072867
     55 H132      -98.3350   60.0980 -136.4700 hc        1 PIB      0.072867
     56 H133      -99.0310   58.7810 -135.4090 hc        1 PIB      0.072867
     57 H151      -92.3810   65.6260 -133.8790 hc        1 PIB      0.087033
     58 H152      -91.2230   66.3020 -132.6390 hc        1 PIB      0.087033
     59 H161      -92.7610   67.2130 -133.0300 hc        1 PIB      0.087033
     60 H162      -90.3690   60.4640 -132.4340 ha        1 PIB      0.114500
     61 H171      -88.7330   60.2910 -131.5780 ha        1 PIB      0.114500
     62 H172      -88.9670   62.6240 -130.6720 ha        1 PIB      0.114500
     63 H173      -90.6030   62.7900 -131.5260 ha        1 PIB      0.114500
     64 C14       -93.0350   65.4210 -131.8920 c         1 PIB      0.688100
@<TRIPOS>BOND
     1    1    2 1   
     2    1    6 2   
     3    1   36 1   
     4    2    3 1   
     5    2    8 1   
     6    2   37 1   
     7    3    4 1   
     8    3    9 1   
     9    3   38 1   
    10    4    5 1   
    11    4   10 1   
    12    4   39 1   
    13    5    6 1   
    14    5   11 1   
    15    5   40 1   
    16    6   12 1   
    17    7   13 1   
    18    7   35 1   
    19    8   41 1   
    20    9   17 1   
    21   10   42 1   
    22   11   43 1   
    23   12   44 1   
    24   13   14 1   
    25   13   15 1   
    26   13   16 1   
    27   16   21 1   
    28   17   18 1   
    29   17   19 1   
    30   17   20 1   
    31   21   22 1   
    32   21   46 1   
    33   21   47 1   
    34   22   23 2   
    35   22   48 1   
    36   23   32 1   
    37   23   49 1   
    38   24   32 1   
    39   24   33 2   
    40   24   50 1   
    41   25   26 1   
    42   25   27 1   
    43   25   51 1   
    44   25   52 1   
    45   26   27 1   
    46   26   53 1   
    47   26   54 1   
    48   27   55 1   
    49   27   56 1   
    50   28   57 1   
    51   28   58 1   
    52   28   59 1   
    53   28   64 1   
    54   29   30 2   
    55   29   60 1   
    56   29   61 1   
    57   30   62 1   
    58   30   63 1   
    59   31   45 1   
    60   31   64 1   
    61   34   64 2   
@<TRIPOS>SUBSTRUCTURE
     1 PIB         1 TEMP              0 ****  ****    0 ROOT
