@<TRIPOS>MOLECULE
molecule
   26    27     1     0     0
SMALL
bcc


@<TRIPOS>ATOM
      1 C1           0.0000     0.0000     0.0000 c3         1 PIC       0.322700
      2 C2           1.5070     0.0000     0.0000 ca         1 PIC      -0.086300
      3 C3           2.1930     0.0000     1.2130 ca         1 PIC      -0.074000
      4 C7           6.3630    -0.0010    -1.1630 ca         1 PIC      -0.138600
      5 C8           5.6580    -0.0020    -2.3810 ca         1 PIC      -0.111000
      6 C9           4.3010    -0.0020    -2.3990 ca         1 PIC      -0.153000
      7 C10          3.5810    -0.0010    -1.1910 ca         1 PIC      -0.036000
      8 C11          2.1780    -0.0010    -1.1840 ca         1 PIC      -0.081000
      9 C12          7.8390    -0.0010    -1.1720 c          1 PIC       0.895200
     10 C4           3.5530     0.0010     1.2470 ca         1 PIC      -0.166000
     11 C5           4.2790    -0.0010     0.0420 ca         1 PIC      -0.050000
     12 C6           5.6820    -0.0060     0.0430 ca         1 PIC      -0.108000
     13 O1           8.5060    -0.0010    -2.3420 o          1 PIC      -0.873300
     14 O2           8.4530    -0.0000    -0.1230 o          1 PIC      -0.873300
     15 F1          -0.4670     0.6640     1.1400 f          1 PIC      -0.277800
     16 F2          -0.4670     0.6540    -1.1440 f          1 PIC      -0.277800
     17 P           -0.6080    -1.7180     0.0090 p5         1 PIC       0.989700
     18 OP1          0.0150    -2.5130    -1.2460 o          1 PIC      -0.879500
     19 OP2         -0.1610    -2.4400     1.3760 o          1 PIC      -0.879500
     20 OP3         -2.0840    -1.7190    -0.0910 o          1 PIC      -0.879500
     21 HC3          1.6360     0.0010     2.1410 ha         1 PIC       0.137000
     22 HC8          6.2060    -0.0020    -3.3160 ha         1 PIC       0.127000
     23 HC9          3.7720    -0.0020    -3.3440 ha         1 PIC       0.105000
     24 HC11         1.6320     0.0860    -2.1160 ha         1 PIC       0.140000
     25 HC4          4.0740     0.0010     2.1970 ha         1 PIC       0.099000
     26 HC6          6.2280    -0.0050     0.9790 ha         1 PIC       0.129000
@<TRIPOS>BOND
     1     1     2 1
     2     1    15 1
     3     1    16 1
     4     1    17 1
     5     2     3 ar
     6     2     8 ar
     7     3    10 ar
     8     3    21 1
     9     4     5 ar
    10     4     9 1
    11     4    12 ar
    12     5     6 ar
    13     5    22 1
    14     6     7 ar
    15     6    23 1
    16     7     8 ar
    17     7    11 ar
    18     8    24 1
    19     9    13 1
    20     9    14 1
    21    10    11 ar
    22    10    25 1
    23    11    12 ar
    24    12    26 1
    25    17    18 1
    26    17    19 1
    27    17    20 1
@<TRIPOS>SUBSTRUCTURE
     1 PIC         1 TEMP              0 ****  ****    0 ROOT
