@<TRIPOS>MOLECULE
PIC
   26    26     1     0     0
SMALL
bcc


@<TRIPOS>ATOM
      1 C1          0.0950   -0.2340   -0.0740 c2        1 PIC     -0.257000
      2 C2          1.5910   -0.1680   -0.1060 ca        1 PIC      0.007000
      3 C3          2.2970   -0.2440    1.1310 ca        1 PIC     -0.113000
      4 C7          6.5720    0.1460   -1.1800 ca        1 PIC     -0.142000
      5 C8          5.8760    0.1500   -2.4170 ca        1 PIC     -0.114000
      6 C9          4.5070    0.0470   -2.4600 ca        1 PIC     -0.173000
      7 C10         3.7410   -0.0600   -1.2660 ca        1 PIC     -0.017000
      8 C11         2.3220   -0.1070   -1.2790 ca        1 PIC     -0.184000
      9 C12         8.0760    0.2860   -1.1730 c2        1 PIC      0.357000
     10 C4          3.6670   -0.1990    1.1690 ca        1 PIC     -0.157000
     11 C5          4.4330   -0.0820   -0.0250 ca        1 PIC     -0.082000
     12 C6          5.8500    0.0220   -0.0120 ca        1 PIC     -0.095000
     13 O1          8.6920    0.3980   -2.2790 o         1 PIC     -0.605000
     14 O2          8.6960    0.2960   -0.0650 o         1 PIC     -0.605000
     15 F1         -0.4600    0.6090    0.8650 f         1 PIC     -0.217000
     16 F2         -0.5100    0.1720   -1.2400 f         1 PIC     -0.217000
     17 P          -1.3780   -1.8000    0.3210 p3        1 PIC      2.529000
     18 OP1        -1.1110   -2.7830   -0.7680 o         1 PIC     -1.209000
     19 OP2        -0.9840   -2.2050    1.7030 o         1 PIC     -1.209000
     20 OP3        -2.6320   -1.0010    0.1960 o         1 PIC     -1.209000
     21 HC3         1.6950   -0.3530    2.0480 ha        1 PIC      0.146000
     22 HC8         6.4760    0.2390   -3.3350 ha        1 PIC      0.124000
     23 HC9         3.9730    0.0480   -3.4210 ha        1 PIC      0.097000
     24 HC11        1.7950   -0.0880   -2.2440 ha        1 PIC      0.125000
     25 HC4         4.2040   -0.2520    2.1270 ha        1 PIC      0.094000
     26 HC6         6.3830    0.0090    0.9510 ha        1 PIC      0.126000
@<TRIPOS>BOND
     1    1    2 1   
     2    1   15 1   
     3    1   16 1   
     4    2    3 1   
     5    2    8 1   
     6    3   10 1   
     7    3   21 1   
     8    4    5 1   
     9    4    9 1   
    10    4   12 1   
    11    5    6 1   
    12    5   22 1   
    13    6    7 1   
    14    6   23 1   
    15    7    8 1   
    16    7   11 1   
    17    8   24 1   
    18    9   13 1   
    19    9   14 1   
    20   10   11 1   
    21   10   25 1   
    22   11   12 1   
    23   12   26 1   
    24   17   18 1   
    25   17   19 1   
    26   17   20 1   
@<TRIPOS>SUBSTRUCTURE
     1 PIC         1 TEMP              0 ****  ****    0 ROOT
