@<TRIPOS>MOLECULE
molecule
   24    23     1     0     0
SMALL
bcc


@<TRIPOS>ATOM
      1 O1           0.0000     0.0000     0.0000 oh         1 PIG      -0.598800
      2 C1           1.4280     0.0000     0.0000 c3         1 PIG       0.142400
      3 C2           1.9390     0.0000     1.4420 c3         1 PIG       0.128400
      4 O2           1.4630    -1.1680     2.1150 os         1 PIG      -0.381600
      5 C3           1.9690    -1.1090     3.4500 c3         1 PIG       0.126400
      6 C4           1.4940    -2.3370     4.2300 c3         1 PIG       0.126400
      7 O3           1.9710    -3.5210     3.5890 os         1 PIG      -0.381600
      8 C5           1.4970    -4.6270     4.3600 c3         1 PIG       0.128400
      9 C6           1.9750    -5.9340     3.7270 c3         1 PIG       0.142400
     10 O4           3.4030    -5.9530     3.6950 oh         1 PIG      -0.598800
     11 HO1         -0.3140     0.0920    -0.8840 ho         1 PIG       0.398500
     12 H11          1.7890    -0.8840    -0.5110 h1         1 PIG       0.027700
     13 H12          1.7890     0.8840    -0.5110 h1         1 PIG       0.027700
     14 H21          3.0220     0.0010     1.4420 h1         1 PIG       0.032200
     15 H22          1.5770     0.8840     1.9530 h1         1 PIG       0.032200
     16 H31          3.0520    -1.0940     3.4250 h1         1 PIG       0.032700
     17 H32          1.6060    -0.2110     3.9350 h1         1 PIG       0.032700
     18 H41          0.4110    -2.3510     4.2560 h1         1 PIG       0.032700
     19 H42          1.8790    -2.2930     5.2410 h1         1 PIG       0.032700
     20 H51          1.8810    -4.5540     5.3710 h1         1 PIG       0.032200
     21 H52          0.4140    -4.6130     4.3840 h1         1 PIG       0.032200
     22 H61          1.6150    -6.7710     4.3110 h1         1 PIG       0.027700
     23 H62          1.5910    -6.0070     2.7160 h1         1 PIG       0.027700
     24 HO4          3.6990    -6.7940     3.3890 ho         1 PIG       0.398500
@<TRIPOS>BOND
     1     1     2 1
     2     1    11 1
     3     2     3 1
     4     2    12 1
     5     2    13 1
     6     3     4 1
     7     3    14 1
     8     3    15 1
     9     4     5 1
    10     5     6 1
    11     5    16 1
    12     5    17 1
    13     6     7 1
    14     6    18 1
    15     6    19 1
    16     7     8 1
    17     8     9 1
    18     8    20 1
    19     8    21 1
    20     9    10 1
    21     9    22 1
    22     9    23 1
    23    10    24 1
@<TRIPOS>SUBSTRUCTURE
     1 PIG         1 TEMP              0 ****  ****    0 ROOT
