@<TRIPOS>MOLECULE
PIG
   24    23     1     0     0
SMALL
bcc


@<TRIPOS>ATOM
      1 O1         -0.0100    0.8910    0.4200 oh        1 PIG     -0.599800
      2 C1          1.1440    0.1890    0.0080 c3        1 PIG      0.131400
      3 C2          2.0710   -0.1080    1.1820 c3        1 PIG      0.087400
      4 O2          1.3690   -1.0250    2.0190 os        1 PIG     -0.437600
      5 C3          2.1010   -1.3540    3.1980 c3        1 PIG      0.128400
      6 C4          1.3250   -2.4680    3.8930 c3        1 PIG      0.128400
      7 O3          2.0600   -3.6710    3.6750 os        1 PIG     -0.437600
      8 C5          1.3580   -4.8260    4.1320 c3        1 PIG      0.087400
      9 C6          2.2880   -6.0100    3.8860 c3        1 PIG      0.131400
     10 O4          3.4400   -5.9450    4.7000 oh        1 PIG     -0.599800
     11 HO1        -0.4420    0.3490    1.0940 ho        1 PIG      0.412000
     12 H11         0.8530   -0.7680   -0.5020 h1        1 PIG      0.053700
     13 H12         1.6580    0.8720   -0.7190 h1        1 PIG      0.053700
     14 H21         3.0260   -0.5740    0.8240 h1        1 PIG      0.039700
     15 H22         2.2990    0.8290    1.7560 h1        1 PIG      0.039700
     16 H31         3.1350   -1.6960    2.9290 h1        1 PIG      0.044700
     17 H32         2.1620   -0.4490    3.8580 h1        1 PIG      0.044700
     18 H41         0.2920   -2.5620    3.4660 h1        1 PIG      0.044700
     19 H42         1.2620   -2.2720    4.9960 h1        1 PIG      0.044700
     20 H51         1.1280   -4.7210    5.2240 h1        1 PIG      0.039700
     21 H52         0.4050   -4.9460    3.5530 h1        1 PIG      0.039700
     22 H61         1.7740   -6.9630    4.1810 h1        1 PIG      0.053700
     23 H62         2.5810   -6.0500    2.8040 h1        1 PIG      0.053700
     24 HO4         3.8710   -5.1020    4.5090 ho        1 PIG      0.412000
@<TRIPOS>BOND
     1    1    2 1   
     2    1   11 1   
     3    2    3 1   
     4    2   12 1   
     5    2   13 1   
     6    3    4 1   
     7    3   14 1   
     8    3   15 1   
     9    4    5 1   
    10    5    6 1   
    11    5   16 1   
    12    5   17 1   
    13    6    7 1   
    14    6   18 1   
    15    6   19 1   
    16    7    8 1   
    17    8    9 1   
    18    8   20 1   
    19    8   21 1   
    20    9   10 1   
    21    9   22 1   
    22    9   23 1   
    23   10   24 1   
@<TRIPOS>SUBSTRUCTURE
     1 PIG         1 TEMP              0 ****  ****    0 ROOT
