@<TRIPOS>MOLECULE
molecule
   12    12     1     0     0
SMALL
bcc


@<TRIPOS>ATOM
      1 C1           0.0000     0.0000     0.0000 ca         1 PIH      -0.098000
      2 C2           1.3820     0.0000     0.0000 ca         1 PIH      -0.129000
      3 C3           2.0730     0.0000     1.1970 ca         1 PIH      -0.113000
      4 C4           1.3820     0.0000     2.3940 ca         1 PIH      -0.129000
      5 C5           0.0000     0.0060     2.3940 ca         1 PIH      -0.098000
      6 C6          -0.6920     0.0010     1.1970 ca         1 PIH       0.053900
      7 I6          -2.7860     0.0010     1.1970 i          1 PIH      -0.172900
      8 H1          -0.5410    -0.0020    -0.9380 ha         1 PIH       0.141000
      9 H2           1.9240    -0.0000    -0.9380 ha         1 PIH       0.136000
     10 H3           3.1560    -0.0020     1.1970 ha         1 PIH       0.133000
     11 H4           1.9240     0.0020     3.3320 ha         1 PIH       0.136000
     12 H5          -0.5410     0.0060     3.3320 ha         1 PIH       0.141000
@<TRIPOS>BOND
     1     1     2 ar
     2     1     6 ar
     3     1     8 1
     4     2     3 ar
     5     2     9 1
     6     3     4 ar
     7     3    10 1
     8     4     5 ar
     9     4    11 1
    10     5     6 ar
    11     5    12 1
    12     6     7 1
@<TRIPOS>SUBSTRUCTURE
     1 PIH         1 TEMP              0 ****  ****    0 ROOT
