@<TRIPOS>MOLECULE
PIH
   12    12     1     0     0
SMALL
bcc


@<TRIPOS>ATOM
      1 C1         -0.0150   -0.0000   -0.0110 ca        1 PIH     -0.096000
      2 C2          1.3800   -0.0010   -0.0100 ca        1 PIH     -0.134000
      3 C3          2.0790    0.0000    1.1970 ca        1 PIH     -0.112000
      4 C4          1.3800    0.0020    2.4040 ca        1 PIH     -0.134000
      5 C5         -0.0150    0.0030    2.4050 ca        1 PIH     -0.096000
      6 C6         -0.7140    0.0020    1.1970 ca        1 PIH      0.022900
      7 I6         -2.7350    0.0030    1.1970 i         1 PIH     -0.145900
      8 H1         -0.5560   -0.0010   -0.9700 ha        1 PIH      0.144000
      9 H2          1.9270   -0.0020   -0.9640 ha        1 PIH      0.137000
     10 H3          3.1790   -0.0000    1.1970 ha        1 PIH      0.135000
     11 H4          1.9270    0.0030    3.3580 ha        1 PIH      0.137000
     12 H5         -0.5560    0.0040    3.3640 ha        1 PIH      0.144000
@<TRIPOS>BOND
     1    1    2 ar  
     2    1    6 ar  
     3    1    8 1   
     4    2    3 ar  
     5    2    9 1   
     6    3    4 ar  
     7    3   10 1   
     8    4    5 ar  
     9    4   11 1   
    10    5    6 ar  
    11    5   12 1   
    12    6    7 1   
@<TRIPOS>SUBSTRUCTURE
     1 PIH         1 TEMP              0 ****  ****    0 ROOT
