@<TRIPOS>MOLECULE
molecule
   43    45     1     0     0
SMALL
bcc


@<TRIPOS>ATOM
      1 Cl25         0.0000     0.0000     0.0000 cl         1 PIL      -0.075400
      2 C24          1.7360     0.0000     0.0000 ca         1 PIL      -0.097400
      3 C23          2.4350     0.0000     1.1900 ca         1 PIL       0.436700
      4 N22          3.7550    -0.0010     1.1990 nb         1 PIL      -0.671000
      5 C21          4.4600    -0.0010     0.0840 ca         1 PIL       0.436700
      6 C19          3.8360    -0.0070    -1.1480 ca         1 PIL      -0.097400
      7 Cl20         4.7730    -0.0090    -2.6090 cl         1 PIL      -0.075400
      8 C18          2.4430    -0.0010    -1.2010 ca         1 PIL       0.101600
      9 N16          1.7730    -0.0020    -2.4260 ns         1 PIL      -0.489100
     10 C15          1.9620     1.0080    -3.2980 c          1 PIL       0.686700
     11 O17          2.7150     1.9190    -3.0180 o          1 PIL      -0.584100
     12 C14          1.2540     1.0060    -4.5920 ca         1 PIL      -0.149600
     13 C13          0.3890    -0.0420    -4.9150 ca         1 PIL      -0.100000
     14 C12         -0.2720    -0.0400    -6.1250 ca         1 PIL      -0.206000
     15 C9          -0.0790     1.0000    -7.0240 ca         1 PIL       0.119100
     16 O10         -0.7330     0.9960    -8.2140 os         1 PIL      -0.274900
     17 C11         -1.5300    -0.1900    -8.2450 c3         1 PIL       0.101700
     18 C2           0.7880     2.0450    -6.7100 ca         1 PIL       0.091100
     19 C1           1.4490     2.0530    -5.4970 ca         1 PIL      -0.138000
     20 O3           0.9740     3.0610    -7.5940 os         1 PIL      -0.276900
     21 C4           2.0130     3.8860    -7.0610 c3         1 PIL       0.105100
     22 C5           1.4230     4.8880    -6.0480 c3         1 PIL      -0.097900
     23 C6           2.2390     6.1840    -6.2770 c3         1 PIL      -0.083400
     24 C7           2.4290     6.2020    -7.8150 c3         1 PIL      -0.083400
     25 C8           2.6520     4.7210    -8.1840 c3         1 PIL      -0.097900
     26 H23          1.8940     0.0000     2.1290 h4         1 PIL       0.042600
     27 H21          5.5420    -0.0010     0.1350 h4         1 PIL       0.042600
     28 H16          1.1830    -0.7720    -2.6730 hn         1 PIL       0.337500
     29 H13          0.2360    -0.8550    -4.2160 ha         1 PIL       0.125000
     30 H12         -0.9430    -0.8530    -6.3750 ha         1 PIL       0.150000
     31 H111        -0.8880    -1.0580    -8.1560 h1         1 PIL       0.045367
     32 H112        -2.2330    -0.1740    -7.4200 h1         1 PIL       0.045367
     33 H113        -2.0720    -0.2370    -9.1810 h1         1 PIL       0.045367
     34 H1           2.1220     2.8650    -5.2520 ha         1 PIL       0.182000
     35 H4           2.7680     3.2760    -6.5800 h1         1 PIL       0.064700
     36 H51          1.5630     4.5280    -5.0360 hc         1 PIL       0.059950
     37 H52          0.3740     5.0610    -6.2550 hc         1 PIL       0.059950
     38 H61          3.1970     6.1270    -5.7740 hc         1 PIL       0.048700
     39 H62          1.6780     7.0520    -5.9510 hc         1 PIL       0.048700
     40 H71          3.2970     6.7920    -8.0820 hc         1 PIL       0.048700
     41 H72          1.5390     6.5830    -8.3010 hc         1 PIL       0.048700
     42 H81          3.7130     4.5100    -8.2440 hc         1 PIL       0.059950
     43 H82          2.1700     4.4990    -9.1290 hc         1 PIL       0.059950
@<TRIPOS>BOND
     1     1     2 1
     2     2     3 ar
     3     2     8 ar
     4     3     4 ar
     5     3    26 1
     6     4     5 ar
     7     5     6 ar
     8     5    27 1
     9     6     7 1
    10     6     8 ar
    11     8     9 1
    12     9    10 1
    13     9    28 1
    14    10    11 2
    15    10    12 1
    16    12    13 ar
    17    12    19 ar
    18    13    14 ar
    19    13    29 1
    20    14    15 ar
    21    14    30 1
    22    15    16 1
    23    15    18 ar
    24    16    17 1
    25    17    31 1
    26    17    32 1
    27    17    33 1
    28    18    19 ar
    29    18    20 1
    30    19    34 1
    31    20    21 1
    32    21    22 1
    33    21    25 1
    34    21    35 1
    35    22    23 1
    36    22    36 1
    37    22    37 1
    38    23    24 1
    39    23    38 1
    40    23    39 1
    41    24    25 1
    42    24    40 1
    43    24    41 1
    44    25    42 1
    45    25    43 1
@<TRIPOS>SUBSTRUCTURE
     1 PIL         1 TEMP              0 ****  ****    0 ROOT
