@<TRIPOS>MOLECULE
molecule
   19    20     1     0     0
SMALL
bcc


@<TRIPOS>ATOM
      1 N1           0.0000     0.0000     0.0000 na         1 PIM      -0.292900
      2 C2           1.3520     0.0000     0.0000 cc         1 PIM       0.398400
      3 N3           1.7750     0.0000     1.2340 nd         1 PIM      -0.697000
      4 C4           0.7290    -0.0010     2.0670 cd         1 PIM       0.332200
      5 C5          -0.4040     0.0040     1.3150 cc         1 PIM      -0.191600
      6 C6          -1.7970     0.0050     1.8110 ca         1 PIM      -0.009000
      7 C7          -2.1470    -0.7730     2.9160 ca         1 PIM      -0.117500
      8 C8          -3.4480    -0.7680     3.3740 ca         1 PIM      -0.125000
      9 C9          -4.4050     0.0070     2.7440 ca         1 PIM      -0.126000
     10 C10         -4.0630     0.7800     1.6490 ca         1 PIM      -0.125000
     11 C11         -2.7650     0.7890     1.1840 ca         1 PIM      -0.117500
     12 HN1         -0.5950     0.0010    -0.8050 hn         1 PIM       0.300700
     13 H2           1.9810    -0.0010    -0.8820 h5         1 PIM       0.065100
     14 H4           0.7760    -0.0010     3.1500 h4         1 PIM       0.045100
     15 H7          -1.4000    -1.3800     3.4110 ha         1 PIM       0.133500
     16 H8          -3.7210    -1.3710     4.2320 ha         1 PIM       0.132000
     17 H9          -5.4250     0.0060     3.1070 ha         1 PIM       0.131000
     18 H10         -4.8160     1.3870     1.1600 ha         1 PIM       0.132000
     19 H11         -2.5000     1.3950     0.3260 ha         1 PIM       0.133500
@<TRIPOS>BOND
     1     1     2 1
     2     1     5 1
     3     1    12 1
     4     2     3 2
     5     2    13 1
     6     3     4 1
     7     4     5 2
     8     4    14 1
     9     5     6 1
    10     6     7 ar
    11     6    11 ar
    12     7     8 ar
    13     7    15 1
    14     8     9 ar
    15     8    16 1
    16     9    10 ar
    17     9    17 1
    18    10    11 ar
    19    10    18 1
    20    11    19 1
@<TRIPOS>SUBSTRUCTURE
     1 PIM         1 TEMP              0 ****  ****    0 ROOT
