@<TRIPOS>MOLECULE
PIM
   19    20     1     0     0
SMALL
bcc


@<TRIPOS>ATOM
      1 N1         -0.0140    0.1770    0.0120 na        1 PIM     -0.311900
      2 C2          1.3790    0.0820   -0.0000 cc        1 PIM      0.392400
      3 N3          1.8710   -0.1500    1.2380 nd        1 PIM     -0.667000
      4 C4          0.7680   -0.2140    2.0790 cd        1 PIM      0.313200
      5 C5         -0.4250   -0.0140    1.3410 cc        1 PIM     -0.171600
      6 C6         -1.7960    0.0000    1.7980 ca        1 PIM     -0.004000
      7 C7         -2.1270   -0.6610    2.9920 ca        1 PIM     -0.123500
      8 C8         -3.4380   -0.6540    3.4590 ca        1 PIM     -0.124000
      9 C9         -4.4360    0.0070    2.7430 ca        1 PIM     -0.129000
     10 C10        -4.1150    0.6660    1.5560 ca        1 PIM     -0.124000
     11 C11        -2.8040    0.6660    1.0850 ca        1 PIM     -0.123500
     12 HN1        -0.6100    0.3240   -0.7580 hn        1 PIM      0.301700
     13 H2          1.9710    0.1900   -0.9140 h5        1 PIM      0.062100
     14 H4          0.8720   -0.3870    3.1500 h4        1 PIM      0.043100
     15 H7         -1.3420   -1.1870    3.5570 ha        1 PIM      0.131500
     16 H8         -3.6870   -1.1740    4.3960 ha        1 PIM      0.134000
     17 H9         -5.4720    0.0100    3.1120 ha        1 PIM      0.134000
     18 H10        -4.8990    1.1930    0.9910 ha        1 PIM      0.134000
     19 H11        -2.5680    1.2060    0.1560 ha        1 PIM      0.131500
@<TRIPOS>BOND
     1    1    2 1   
     2    1    5 1   
     3    1   12 1   
     4    2    3 2   
     5    2   13 1   
     6    3    4 1   
     7    4    5 2   
     8    4   14 1   
     9    5    6 1   
    10    6    7 ar  
    11    6   11 ar  
    12    7    8 ar  
    13    7   15 1   
    14    8    9 ar  
    15    8   16 1   
    16    9   10 ar  
    17    9   17 1   
    18   10   11 ar  
    19   10   18 1   
    20   11   19 1   
@<TRIPOS>SUBSTRUCTURE
     1 PIM         1 TEMP              0 ****  ****    0 ROOT
