@<TRIPOS>MOLECULE
PIN
   34    34     1     0     0
SMALL
bcc


@<TRIPOS>ATOM
      1 C1           0.0000     0.0000     0.0000 c3         1 PIN      -0.059600
      2 C2           1.5290     0.0000     0.0000 c3         1 PIN       0.169800
      3 N1           2.0190     0.0000     1.3850 n3         1 PIN      -0.535600
      4 C3           3.4850     0.0010     1.3140 c3         1 PIN       0.134300
      5 C4           1.6220    -1.2830     1.9730 c3         1 PIN       0.134300
      6 C1'          3.7800    -2.7230     5.3720 c3         1 PIN      -0.059600
      7 N1'          3.6710    -1.4060     3.3100 n3         1 PIN      -0.535600
      8 C3'          2.2060    -1.4070     3.3810 c3         1 PIN       0.134300
      9 C4'          4.0690    -0.1220     2.7210 c3         1 PIN       0.134300
     10 S1          -0.6060    -0.0010    -1.7090 s6         1 PIN       0.952300
     11 S1'          4.3860    -2.7230     7.0810 s6         1 PIN       0.952300
     12 O1          -0.3590    -1.2440    -2.3510 o          1 PIN      -0.665700
     13 O2          -0.3610     1.2420    -2.3520 o          1 PIN      -0.665700
     14 O3          -2.1180    -0.0020    -1.5420 o          1 PIN      -0.665700
     15 O1'          5.8010    -2.8200     7.1350 o          1 PIN      -0.665700
     16 O2'          3.6600    -1.8100     7.8920 o          1 PIN      -0.665700
     17 O3'          3.9340    -4.0760     7.6090 o          1 PIN      -0.665700
     18 H11         -0.3610    -0.8840     0.5110 h1         1 PIN       0.059450
     19 H12         -0.3610     0.8850     0.5100 h1         1 PIN       0.059450
     20 H21          1.8900     0.8850    -0.5110 h1         1 PIN       0.011200
     21 H22          1.8900    -0.8840    -0.5110 h1         1 PIN       0.011200
     22 H31          3.8160    -0.8370     0.7130 h1         1 PIN       0.014950
     23 H32          3.8220     0.9280     0.8650 h1         1 PIN       0.014950
     24 H41          1.9970    -2.0920     1.3570 h1         1 PIN       0.014950
     25 H42          0.5420    -1.3350     2.0270 h1         1 PIN       0.014950
     26 H1'1         4.2260    -3.5490     4.8310 h1         1 PIN       0.059450
     27 H1'2         2.7020    -2.8300     5.3710 h1         1 PIN       0.059450
     28 H2'1         5.2400    -1.2980     4.6950 h1         1 PIN       0.011200
     29 H2'2         3.7160    -0.5790     5.2340 h1         1 PIN       0.011200
     30 H3'1         1.8750    -0.5690     3.9820 h1         1 PIN       0.014950
     31 H3'2         1.8690    -2.3340     3.8290 h1         1 PIN       0.014950
     32 H4'1         5.1500    -0.0710     2.6670 h1         1 PIN       0.014950
     33 H4'2         3.6960     0.6870     3.3370 h1         1 PIN       0.014950
     34 C2'          4.1620    -1.4060     4.6940 c3         1 PIN       0.169800
@<TRIPOS>BOND
     1     1     2 1   
     2     1    10 1   
     3     1    18 1   
     4     1    19 1   
     5     2     3 1   
     6     2    20 1   
     7     2    21 1   
     8     3     4 1   
     9     3     5 1   
    10     4     9 1   
    11     4    22 1   
    12     4    23 1   
    13     5     8 1   
    14     5    24 1   
    15     5    25 1   
    16     6    11 1   
    17     6    26 1   
    18     6    27 1   
    19     6    34 1   
    20     7     8 1   
    21     7     9 1   
    22     7    34 1   
    23     8    30 1   
    24     8    31 1   
    25     9    32 1   
    26     9    33 1   
    27    10    12 1   
    28    10    13 1   
    29    10    14 1   
    30    11    15 1   
    31    11    16 1   
    32    11    17 1   
    33    28    34 1   
    34    29    34 1   
@<TRIPOS>SUBSTRUCTURE
     1 PIN         1 TEMP              0 ****  ****    0 ROOT
