@<TRIPOS>MOLECULE
molecule
   17    17     1     0     0
SMALL
bcc


@<TRIPOS>ATOM
      1 N1           0.0000     0.0000     0.0000 n7         1 PIP      -0.800200
      2 C2           1.4660     0.0000     0.0000 c3         1 PIP       0.148800
      3 C3           1.9840     0.0000     1.4390 c3         1 PIP      -0.076400
      4 C4           1.5020    -1.2680     2.1490 c3         1 PIP      -0.082400
      5 C5          -0.0240    -1.3440     2.0490 c3         1 PIP      -0.076400
      6 C6          -0.4370    -1.2740     0.5800 c3         1 PIP       0.148800
      7 HN1         -0.3340     0.0700    -0.9410 hn         1 PIP       0.349800
      8 H21          1.8240    -0.8860    -0.5100 h1         1 PIP       0.029700
      9 H22          1.8240     0.8860    -0.5100 h1         1 PIP       0.029700
     10 H31          1.6040     0.8710     1.9590 hc         1 PIP       0.047700
     11 H32          3.0670     0.0200     1.4320 hc         1 PIP       0.047700
     12 H41          1.9390    -2.1380     1.6720 hc         1 PIP       0.039700
     13 H42          1.7960    -1.2330     3.1910 hc         1 PIP       0.039700
     14 H51         -0.4620    -0.5120     2.5870 hc         1 PIP       0.047700
     15 H52         -0.3670    -2.2780     2.4760 hc         1 PIP       0.047700
     16 H61          0.0250    -2.0910     0.0380 h1         1 PIP       0.029700
     17 H62         -1.5150    -1.3500     0.5060 h1         1 PIP       0.029700
@<TRIPOS>BOND
     1     1     2 1
     2     1     6 1
     3     1     7 1
     4     2     3 1
     5     2     8 1
     6     2     9 1
     7     3     4 1
     8     3    10 1
     9     3    11 1
    10     4     5 1
    11     4    12 1
    12     4    13 1
    13     5     6 1
    14     5    14 1
    15     5    15 1
    16     6    16 1
    17     6    17 1
@<TRIPOS>SUBSTRUCTURE
     1 PIP         1 TEMP              0 ****  ****    0 ROOT
