@<TRIPOS>MOLECULE
molecule
   29    31     1     0     0
SMALL
bcc


@<TRIPOS>ATOM
      1 N            0.0000     0.0000     0.0000 nv         1 PIQ      -1.005800
      2 C2           1.3770     0.0000     0.0000 cc         1 PIQ       0.658700
      3 N1           2.1610     0.0000     1.1170 na         1 PIQ      -0.169300
      4 C7A          3.4790     0.0050     0.6900 ca         1 PIQ      -0.212500
      5 C7           4.7010     0.0000     1.3390 ca         1 PIQ      -0.083000
      6 C6           5.8600     0.0020     0.5600 cp         1 PIQ      -0.159300
      7 C1'          7.1970     0.0020     1.2050 cp         1 PIQ      -0.034000
      8 C2'          8.2270     0.7760     0.6760 ca         1 PIQ      -0.117500
      9 C3'          9.4680     0.7720     1.2780 ca         1 PIQ      -0.127000
     10 C4'          9.6920     0.0010     2.4030 ca         1 PIQ      -0.126000
     11 C5'          8.6720    -0.7700     2.9330 ca         1 PIQ      -0.127000
     12 C6'          7.4250    -0.7680     2.3420 ca         1 PIQ      -0.117500
     13 N3           2.1290     0.0000    -1.0730 nd         1 PIQ      -0.673700
     14 CM           1.6950    -0.0000     2.5060 c3         1 PIQ       0.040600
     15 C3A          3.4380     0.0010    -0.7160 ca         1 PIQ       0.586300
     16 N4           4.5710     0.0020    -1.4170 nb         1 PIQ      -0.644000
     17 C5           5.7460     0.0020    -0.8300 ca         1 PIQ       0.430200
     18 HN1         -0.5000     0.8670     0.0270 hn         1 PIQ       0.447800
     19 HN2         -0.5000    -0.8640    -0.0710 hn         1 PIQ       0.447800
     20 H7           4.7560     0.2450     2.3930 ha         1 PIQ       0.138000
     21 H2'          8.0540     1.3810    -0.2060 ha         1 PIQ       0.134500
     22 H3'         10.2700     1.3730     0.8670 ha         1 PIQ       0.131000
     23 H4'         10.6690    -0.0010     2.8710 ha         1 PIQ       0.130000
     24 H5'          8.8510    -1.3710     3.8160 ha         1 PIQ       0.131000
     25 H6'          6.6270    -1.3720     2.7570 ha         1 PIQ       0.134500
     26 HM1          1.4460     1.0110     2.8030 h1         1 PIQ       0.051367
     27 HM2          2.4780    -0.3830     3.1490 h1         1 PIQ       0.051367
     28 HM3          0.8170    -0.6290     2.5920 h1         1 PIQ       0.051367
     29 H5           6.6430     0.0030    -1.4380 h4         1 PIQ       0.031100
@<TRIPOS>BOND
     1     1     2 1
     2     1    18 1
     3     1    19 1
     4     2     3 1
     5     2    13 2
     6     3     4 1
     7     3    14 1
     8     4     5 ar
     9     4    15 ar
    10     5     6 ar
    11     5    20 1
    12     6     7 1
    13     6    17 ar
    14     7     8 ar
    15     7    12 ar
    16     8     9 ar
    17     8    21 1
    18     9    10 ar
    19     9    22 1
    20    10    11 ar
    21    10    23 1
    22    11    12 ar
    23    11    24 1
    24    12    25 1
    25    13    15 1
    26    14    26 1
    27    14    27 1
    28    14    28 1
    29    15    16 ar
    30    16    17 ar
    31    17    29 1
@<TRIPOS>SUBSTRUCTURE
     1 PIQ         1 TEMP              0 ****  ****    0 ROOT
