@<TRIPOS>MOLECULE
PIR
   32    33     1     0     0
SMALL
bcc


@<TRIPOS>ATOM
      1 C1           0.0000     0.0000     0.0000 ca         1 PIR      -0.081500
      2 C2           1.3820     0.0000     0.0000 ca         1 PIR      -0.093300
      3 C3           2.0760     0.0000     1.1950 ca         1 PIR      -0.081500
      4 C4           1.3910    -0.0010     2.3940 ca         1 PIR      -0.117000
      5 C5           0.0020    -0.0020     2.3980 ca         1 PIR       0.030600
      6 N5          -0.6950    -0.0030     3.6080 nv         1 PIR      -0.562200
      7 C6          -0.6930    -0.0060     1.1950 ca         1 PIR      -0.117000
      8 C1'          2.1330     0.0010    -1.3050 c3         1 PIR       0.155800
      9 C2'          1.7450    -1.2300    -2.1520 c3         1 PIR       0.165100
     10 O2'          2.7170    -2.2660    -2.0080 oh         1 PIR      -0.556800
     11 C3'          1.7170    -0.7190    -3.6090 c3         1 PIR       0.166100
     12 O3'          2.6730    -1.4260    -4.4010 oh         1 PIR      -0.556800
     13 C4'          2.0940     0.7740    -3.5190 c3         1 PIR       0.088500
     14 N4'          1.7340     1.1680    -2.1330 n7         1 PIR      -0.563200
     15 C5'          1.2920     1.5930    -4.5320 c3         1 PIR       0.234400
     16 O5'          1.6000     2.9790    -4.3770 oh         1 PIR      -0.591800
     17 H1          -0.5410    -0.0020    -0.9390 ha         1 PIR       0.108500
     18 H3           3.1590     0.0000     1.1920 ha         1 PIR       0.108500
     19 H4           1.9360    -0.0010     3.3300 ha         1 PIR       0.107000
     20 HN51        -0.9460     0.8630     4.0420 hn         1 PIR       0.271800
     21 HN52        -0.9430    -0.8700     4.0420 hn         1 PIR       0.271800
     22 H6          -1.7760    -0.0070     1.1950 ha         1 PIR       0.107000
     23 H1'          3.2020     0.0140    -1.1310 h1         1 PIR       0.036700
     24 H2'          0.7630    -1.5860    -1.8630 h1         1 PIR       0.016700
     25 HO2'         2.2840    -3.0770    -1.7970 ho         1 PIR       0.384000
     26 H3'          0.7220    -0.8280    -4.0250 h1         1 PIR       0.007700
     27 HO3'         2.2260    -1.9260    -5.0620 ho         1 PIR       0.383000
     28 H4'          3.1580     0.9020    -3.6800 h1         1 PIR       0.041700
     29 HN4'         2.2720     1.9680    -1.8630 hn         1 PIR       0.270800
     30 H5'1         1.5490     1.2770    -5.5360 h1         1 PIR      -0.011300
     31 H5'2         0.2330     1.4380    -4.3640 h1         1 PIR      -0.011300
     32 HO5'         1.2190     3.4670    -5.0880 ho         1 PIR       0.390000
@<TRIPOS>BOND
     1     1     2 ar  
     2     1     7 ar  
     3     1    17 1   
     4     2     3 ar  
     5     2     8 1   
     6     3     4 ar  
     7     3    18 1   
     8     4     5 ar  
     9     4    19 1   
    10     5     6 1   
    11     5     7 ar  
    12     6    20 1   
    13     6    21 1   
    14     7    22 1   
    15     8     9 1   
    16     8    14 1   
    17     8    23 1   
    18     9    10 1   
    19     9    11 1   
    20     9    24 1   
    21    10    25 1   
    22    11    12 1   
    23    11    13 1   
    24    11    26 1   
    25    12    27 1   
    26    13    14 1   
    27    13    15 1   
    28    13    28 1   
    29    14    29 1   
    30    15    16 1   
    31    15    30 1   
    32    15    31 1   
    33    16    32 1   
@<TRIPOS>SUBSTRUCTURE
     1 PIR         1 TEMP              0 ****  ****    0 ROOT
