@<TRIPOS>MOLECULE
PIS
    9     8     1     0     0
SMALL
bcc


@<TRIPOS>ATOM
      1 P1          1.8470   -0.0310   -0.0090 p5        1 PIS      1.488900
      2 O1          0.1140    0.0630   -0.0170 os        1 PIS     -0.830800
      3 P2         -1.4560    0.3750    0.0430 p5        1 PIS      1.940400
      4 S1         -2.6680   -1.3700   -0.5040 s         1 PIS     -1.737000
      5 O2          2.3390    1.3400    0.4120 o         1 PIS     -0.992833
      6 O3          2.2840   -0.3790   -1.4170 o         1 PIS     -0.992833
      7 O4         -1.7760    1.4520   -0.9470 o         1 PIS     -0.942500
      8 O5          2.2330   -1.1000    0.9920 o         1 PIS     -0.992833
      9 O6         -1.8270    0.7360    1.4490 o         1 PIS     -0.942500
@<TRIPOS>BOND
     1    1    2 1   
     2    1    5 1   
     3    1    6 1   
     4    1    8 1   
     5    2    3 1   
     6    3    4 1   
     7    3    7 1   
     8    3    9 1   
@<TRIPOS>SUBSTRUCTURE
     1 PIS         1 TEMP              0 ****  ****    0 ROOT
