@<TRIPOS>MOLECULE
molecule
    9     8     1     0     0
SMALL
bcc


@<TRIPOS>ATOM
      1 P1           1.4090    -0.0100    -0.0760 p5         1 PIS       1.161900
      2 O1           0.2230     0.6740    -0.9230 os         1 PIS      -0.678800
      3 P2          -1.1350     0.4500    -0.0880 p5         1 PIS       1.729400
      4 S1          -1.4830    -1.6270     0.1510 s          1 PIS      -1.616000
      5 O2           1.7710     0.9190     1.1880 o          1 PIS      -0.926500
      6 O3           2.7090    -0.1770    -1.0110 o          1 PIS      -0.926500
      7 O4          -2.3690     1.1140    -0.8820 o          1 PIS      -0.909500
      8 O5           0.9700    -1.3410     0.4000 o          1 PIS      -0.926500
      9 O6          -1.0060     1.0850     1.2430 o          1 PIS      -0.909500
@<TRIPOS>BOND
     1     1     2 1
     2     1     5 1
     3     1     6 1
     4     1     8 1
     5     2     3 1
     6     3     4 1
     7     3     7 1
     8     3     9 1
@<TRIPOS>SUBSTRUCTURE
     1 PIS         1 TEMP              0 ****  ****    0 ROOT
