@<TRIPOS>MOLECULE
molecule
   30    31     1     0     0
SMALL
bcc


@<TRIPOS>ATOM
      1 C1           0.0000     0.0000     0.0000 ca         1 PIT       0.120600
      2 C2           1.3880     0.0000     0.0000 ca         1 PIT      -0.181000
      3 C3           2.0870     0.0000     1.1990 ca         1 PIT       0.120600
      4 C4           1.4020     0.0010     2.4020 ca         1 PIT      -0.153000
      5 C5           0.0050     0.0010     2.4070 ca         1 PIT      -0.031800
      6 C6          -0.6940     0.0000     1.1990 ca         1 PIT      -0.153000
      7 C7          -0.7290     0.0010     3.6860 ce         1 PIT      -0.111200
      8 C8          -2.0720     0.0020     3.6890 cf         1 PIT      -0.102200
      9 C9          -2.8050     0.0020     4.9670 ca         1 PIT      -0.054800
     10 C10         -4.2030     0.0020     4.9730 ca         1 PIT      -0.143000
     11 C11         -4.8860     0.0020     6.1740 ca         1 PIT       0.093100
     12 C12         -4.1810     0.0030     7.3760 ca         1 PIT       0.094100
     13 C13         -2.7940     0.0030     7.3710 ca         1 PIT      -0.150000
     14 C14         -2.1060    -0.0040     6.1770 ca         1 PIT      -0.117000
     15 O1          -4.8550     0.0030     8.5570 oh         1 PIT      -0.510100
     16 O2           3.4460    -0.0010     1.1910 oh         1 PIT      -0.518600
     17 O3          -0.6780     0.0050    -1.1770 oh         1 PIT      -0.518600
     18 OAD         -6.2460     0.0030     6.1830 oh         1 PIT      -0.509100
     19 H3          -0.7730    -0.8800    -1.4890 ho         1 PIT       0.420000
     20 H6          -1.7770    -0.0000     1.1990 ha         1 PIT       0.144500
     21 H2           1.9280    -0.0000    -0.9390 ha         1 PIT       0.151000
     22 HA           3.7600    -0.8900     1.1910 ho         1 PIT       0.420000
     23 H4           1.9490     0.0010     3.3370 ha         1 PIT       0.144500
     24 H7          -0.1850     0.0020     4.6220 ha         1 PIT       0.137000
     25 H8          -2.6160     0.0010     2.7520 ha         1 PIT       0.137000
     26 H10         -4.7490     0.0010     4.0380 ha         1 PIT       0.144000
     27 H14         -1.0230    -0.0040     6.1760 ha         1 PIT       0.138000
     28 H13         -2.2510     0.0010     8.3080 ha         1 PIT       0.143000
     29 H1          -4.8080     0.8610     8.9450 ho         1 PIT       0.423000
     30 HAD         -6.5630    -0.8430     5.9120 ho         1 PIT       0.423000
@<TRIPOS>BOND
     1     1     6 ar
     2     1     2 ar
     3     1    17 1
     4     2     3 ar
     5     2    21 1
     6     3    16 1
     7     3     4 ar
     8     4     5 ar
     9     4    23 1
    10     5     7 1
    11     5     6 ar
    12     6    20 1
    13     7     8 2
    14     7    24 1
    15     8     9 1
    16     8    25 1
    17     9    10 ar
    18     9    14 ar
    19    10    11 ar
    20    10    26 1
    21    11    18 1
    22    11    12 ar
    23    12    15 1
    24    12    13 ar
    25    13    28 1
    26    13    14 ar
    27    14    27 1
    28    15    29 1
    29    16    22 1
    30    17    19 1
    31    18    30 1
@<TRIPOS>SUBSTRUCTURE
     1 PIT         1 TEMP              0 ****  ****    0 ROOT
