@<TRIPOS>MOLECULE
PIT
   30    31     1     0     0
SMALL
bcc


@<TRIPOS>ATOM
      1 C1          0.1440    0.1390   -0.0540 ca        1 PIT      0.159600
      2 C2          1.5440    0.0880   -0.0110 ca        1 PIT     -0.243000
      3 C3          2.1540   -0.0960    1.2340 ca        1 PIT      0.159600
      4 C4          1.4010   -0.2270    2.4110 ca        1 PIT     -0.211000
      5 C5          0.0030   -0.1650    2.3450 ca        1 PIT      0.015200
      6 C6         -0.6300    0.0150    1.1070 ca        1 PIT     -0.211000
      7 C7         -0.7590   -0.3030    3.5770 ce        1 PIT     -0.112200
      8 C8         -2.0050    0.1670    3.7560 cf        1 PIT     -0.091200
      9 C9         -2.7700    0.0350    4.9840 ca        1 PIT     -0.055800
     10 C10        -4.1660    0.1790    4.9210 ca        1 PIT     -0.123000
     11 C11        -4.9350    0.0580    6.0820 ca        1 PIT      0.110100
     12 C12        -4.3030   -0.2010    7.3180 ca        1 PIT      0.046100
     13 C13        -2.9150   -0.3350    7.3820 ca        1 PIT     -0.171000
     14 C14        -2.1570   -0.2160    6.2190 ca        1 PIT     -0.116000
     15 O1         -5.1330   -0.3050    8.4160 oh        1 PIT     -0.515100
     16 O2          3.5210   -0.1610    1.3770 oh        1 PIT     -0.496600
     17 O3         -0.4180    0.3160   -1.2980 oh        1 PIT     -0.496600
     18 OAD        -6.2960    0.2020    5.9560 oh        1 PIT     -0.495100
     19 H3         -1.3800    0.3260   -1.1930 ho        1 PIT      0.422000
     20 H6         -1.7260    0.0480    1.0420 ha        1 PIT      0.144500
     21 H2          2.1290    0.1890   -0.9340 ha        1 PIT      0.153000
     22 HA          3.9190   -0.0580    0.5000 ho        1 PIT      0.422000
     23 H4          1.9170   -0.3720    3.3700 ha        1 PIT      0.144500
     24 H7         -0.2290   -0.8300    4.3900 ha        1 PIT      0.132000
     25 H8         -2.5290    0.6950    2.9380 ha        1 PIT      0.129000
     26 H10        -4.6700    0.3830    3.9650 ha        1 PIT      0.153000
     27 H14        -1.0630   -0.3140    6.2810 ha        1 PIT      0.139000
     28 H13        -2.4240   -0.5310    8.3460 ha        1 PIT      0.137000
     29 H1         -4.5780   -0.4790    9.1900 ho        1 PIT      0.430000
     30 HAD        -6.6910    0.0950    6.8350 ho        1 PIT      0.438000
@<TRIPOS>BOND
     1    1    2 ar  
     2    1    6 ar  
     3    1   17 1   
     4    2    3 ar  
     5    2   21 1   
     6    3    4 ar  
     7    3   16 1   
     8    4    5 ar  
     9    4   23 1   
    10    5    6 ar  
    11    5    7 1   
    12    6   20 1   
    13    7    8 2   
    14    7   24 1   
    15    8    9 1   
    16    8   25 1   
    17    9   10 ar  
    18    9   14 ar  
    19   10   11 ar  
    20   10   26 1   
    21   11   12 ar  
    22   11   18 1   
    23   12   13 ar  
    24   12   15 1   
    25   13   14 ar  
    26   13   28 1   
    27   14   27 1   
    28   15   29 1   
    29   16   22 1   
    30   17   19 1   
    31   18   30 1   
@<TRIPOS>SUBSTRUCTURE
     1 PIT         1 TEMP              0 ****  ****    0 ROOT
