@<TRIPOS>MOLECULE
molecule
   43    44     1     0     0
SMALL
bcc


@<TRIPOS>ATOM
      1 S1           0.0000     0.0000     0.0000 sy         1 PIU       1.244200
      2 O1           1.4220     0.0000     0.0000 o          1 PIU      -0.504300
      3 O2          -0.8220     0.0000     1.1580 o          1 PIU      -0.504300
      4 N1          -0.4500     1.3340    -0.8720 nz         1 PIU      -0.809500
      5 C1          -2.1060    -3.0910    -1.4690 ca         1 PIU      -0.127000
      6 C3           0.0240    -3.0930    -2.5640 ca         1 PIU      -0.127000
      7 C4           0.3990    -1.9780    -1.8390 ca         1 PIU      -0.012000
      8 C6          -1.7290    -1.9780    -0.7400 ca         1 PIU      -0.012000
      9 C2          -1.2270    -3.6510    -2.3780 ca         1 PIU      -0.015300
     10 C5          -0.4780    -1.4210    -0.9270 ca         1 PIU      -0.341500
     11 C16         -1.2400    -6.1310    -2.4040 c3         1 PIU      -0.008700
     12 N2          -1.6370    -7.3130    -3.1730 na         1 PIU       0.049900
     13 C7          -1.1330    -8.9350    -4.7940 ca         1 PIU      -0.142000
     14 C9          -3.2350    -8.9590    -3.6720 ca         1 PIU      -0.142000
     15 C10         -2.8260    -7.8430    -2.9670 ca         1 PIU       0.007400
     16 C11         -0.7960    -7.8180    -4.0550 ca         1 PIU       0.007400
     17 C8          -2.3780    -9.5180    -4.6080 ca         1 PIU       0.050700
     18 C12         -2.7850   -10.7340    -5.3980 c3         1 PIU      -0.072800
     19 C13          0.5520    -7.1730    -4.2520 c3         1 PIU      -0.069800
     20 C14         -3.7490    -7.2270    -1.9470 c3         1 PIU      -0.069800
     21 HN11        -1.4400     1.3220    -1.0120 hn         1 PIU       0.496800
     22 HN12        -0.1930     2.1620    -0.3720 hn         1 PIU       0.496800
     23 H1          -3.0860    -3.5280    -1.3230 ha         1 PIU       0.161000
     24 H3           0.7110    -3.5310    -3.2780 ha         1 PIU       0.161000
     25 H4           1.3790    -1.5410    -1.9850 ha         1 PIU       0.169500
     26 H6          -2.4170    -1.5390    -0.0290 ha         1 PIU       0.169500
     27 H151        -1.1360    -4.8560    -4.1310 hc         1 PIU       0.080700
     28 H152        -2.7080    -4.8560    -3.3190 hc         1 PIU       0.080700
     29 H161        -1.7390    -6.1420    -1.4420 h1         1 PIU       0.101700
     30 H162        -0.1670    -6.1420    -2.2540 h1         1 PIU       0.101700
     31 H7          -0.4380    -9.3450    -5.5160 ha         1 PIU       0.198000
     32 H9          -4.2140    -9.3890    -3.5000 ha         1 PIU       0.198000
     33 H121        -1.9540   -11.0620    -6.0110 hc         1 PIU       0.086033
     34 H122        -3.6270   -10.4870    -6.0330 hc         1 PIU       0.086033
     35 H123        -3.0670   -11.5290    -4.7180 hc         1 PIU       0.086033
     36 H131         1.1300    -7.7540    -4.9600 hc         1 PIU       0.083367
     37 H132         1.0760    -7.1340    -3.3050 hc         1 PIU       0.083367
     38 H133         0.4190    -6.1680    -4.6330 hc         1 PIU       0.083367
     39 H141        -4.6590    -7.8110    -1.8830 hc         1 PIU       0.083367
     40 H142        -3.9910    -6.2140    -2.2450 hc         1 PIU       0.083367
     41 H143        -3.2610    -7.2120    -0.9800 hc         1 PIU       0.083367
     42 H13          0.0090     1.3210    -1.7620 hn         1 PIU       0.496800
     43 C15         -1.6350    -4.8670    -3.1690 c3         1 PIU      -0.069100
@<TRIPOS>BOND
     1     1     2 2
     2     1     3 2
     3     1     4 1
     4     1    10 1
     5     4    21 1
     6     4    22 1
     7     5     8 ar
     8     5     9 ar
     9     5    23 1
    10     6     7 ar
    11     6     9 ar
    12     6    24 1
    13     7    10 ar
    14     7    25 1
    15     8    10 ar
    16     8    26 1
    17     9    43 1
    18    43    11 1
    19    43    27 1
    20    43    28 1
    21    11    12 1
    22    11    29 1
    23    11    30 1
    24    12    15 1
    25    12    16 2
    26    13    16 ar
    27    13    17 ar
    28    13    31 1
    29    14    15 ar
    30    14    17 ar
    31    14    32 1
    32    15    20 1
    33    16    19 1
    34    17    18 1
    35    18    33 1
    36    18    34 1
    37    18    35 1
    38    19    36 1
    39    19    37 1
    40    19    38 1
    41    20    39 1
    42    20    40 1
    43    20    41 1
    44    42     4 1
@<TRIPOS>SUBSTRUCTURE
     1 PIU         1 TEMP              0 ****  ****    0 ROOT
