@<TRIPOS>MOLECULE
PIW
   19    20     1     0     0
SMALL
bcc


@<TRIPOS>ATOM
      1 N1         -0.0150    0.0170    0.0170 na        1 PIW     -0.142000
      2 C2          1.3670    0.3000    0.0560 cc        1 PIW      0.400400
      3 N3          1.8460    0.2220    1.3100 nd        1 PIW     -0.663000
      4 C4          0.7590   -0.1210    2.1180 cd        1 PIW      0.294200
      5 C5         -0.4020   -0.2500    1.3400 cc        1 PIW     -0.246600
      6 C6         -0.8440    0.0110   -1.1190 ca        1 PIW      0.016800
      7 C7         -2.2280    0.2590   -1.0000 ca        1 PIW     -0.146500
      8 C8         -3.0380    0.2490   -2.1320 ca        1 PIW     -0.109000
      9 C9         -2.4940    0.0020   -3.3920 ca        1 PIW     -0.138000
     10 C10        -1.1280   -0.2410   -3.5180 ca        1 PIW     -0.109000
     11 C11        -0.3010   -0.2420   -2.3980 ca        1 PIW     -0.146500
     12 H2          1.9400    0.5580   -0.8400 h5        1 PIW      0.064100
     13 H4          0.8710   -0.2530    3.1940 h4        1 PIW      0.044100
     14 H5         -1.4220   -0.5130    1.6080 h4        1 PIW      0.180000
     15 H7         -2.6750    0.4670   -0.0150 ha        1 PIW      0.142500
     16 H8         -4.1160    0.4430   -2.0260 ha        1 PIW      0.138500
     17 H9         -3.1410   -0.0010   -4.2810 ha        1 PIW      0.139000
     18 H10        -0.6930   -0.4380   -4.5100 ha        1 PIW      0.138500
     19 H11         0.7740   -0.4480   -2.5190 ha        1 PIW      0.142500
@<TRIPOS>BOND
     1    1    2 1   
     2    1    5 1   
     3    1    6 1   
     4    2    3 2   
     5    2   12 1   
     6    3    4 1   
     7    4    5 2   
     8    4   13 1   
     9    5   14 1   
    10    6    7 ar  
    11    6   11 ar  
    12    7    8 ar  
    13    7   15 1   
    14    8    9 ar  
    15    8   16 1   
    16    9   10 ar  
    17    9   17 1   
    18   10   11 ar  
    19   10   18 1   
    20   11   19 1   
@<TRIPOS>SUBSTRUCTURE
     1 PIW         1 TEMP              0 ****  ****    0 ROOT
