@<TRIPOS>MOLECULE
molecule
   19    20     1     0     0
SMALL
bcc


@<TRIPOS>ATOM
      1 N1           0.0000     0.0000     0.0000 na         1 PIW      -0.109000
      2 C2           1.3580     0.0000     0.0000 cc         1 PIW       0.403400
      3 N3           1.7740     0.0000     1.2370 nd         1 PIW      -0.690000
      4 C4           0.7150    -0.0000     2.0620 cd         1 PIW       0.316200
      5 C5          -0.4030     0.0050     1.3110 cc         1 PIW      -0.271600
      6 C6          -0.8340     0.0000    -1.1280 ca         1 PIW       0.013800
      7 C7          -2.2140     0.0050    -0.9730 ca         1 PIW      -0.147500
      8 C8          -3.0330     0.0060    -2.0860 ca         1 PIW      -0.102500
      9 C9          -2.4780     0.0000    -3.3540 ca         1 PIW      -0.139000
     10 C10         -1.1050    -0.0060    -3.5110 ca         1 PIW      -0.102500
     11 C11         -0.2810     0.0010    -2.4010 ca         1 PIW      -0.147500
     12 H2           1.9900    -0.0020    -0.8800 h5         1 PIW       0.067100
     13 H4           0.7530     0.0000     3.1440 h4         1 PIW       0.043100
     14 H5          -1.4240     0.0060     1.6730 h4         1 PIW       0.176000
     15 H7          -2.6480     0.0100     0.0200 ha         1 PIW       0.139000
     16 H8          -4.1090     0.0110    -1.9660 ha         1 PIW       0.138000
     17 H9          -3.1220    -0.0020    -4.2250 ha         1 PIW       0.136000
     18 H10         -0.6740    -0.0080    -4.5050 ha         1 PIW       0.138000
     19 H11          0.7950    -0.0040    -2.5250 ha         1 PIW       0.139000
@<TRIPOS>BOND
     1     2     1 1
     2     5     1 1
     3     1     6 1
     4     3     2 2
     5     2    12 1
     6     3     4 1
     7     4     5 2
     8     4    13 1
     9     5    14 1
    10     6    11 ar
    11     6     7 ar
    12     7     8 ar
    13     7    15 1
    14     8     9 ar
    15     8    16 1
    16    10     9 ar
    17     9    17 1
    18    11    10 ar
    19    10    18 1
    20    11    19 1
@<TRIPOS>SUBSTRUCTURE
     1 PIW         1 TEMP              0 ****  ****    0 ROOT
