@<TRIPOS>MOLECULE
molecule
   45    47     1     0     0
SMALL
bcc


@<TRIPOS>ATOM
      1 O9           0.0000     0.0000     0.0000 o          1 PIX      -0.868800
      2 C8           1.2150     0.0000     0.0000 c          1 PIX       0.996600
      3 N3           1.8890     0.0000     1.1670 n          1 PIX      -0.529800
      4 C2           1.1690     0.0000     2.4480 c3         1 PIX       0.122500
      5 C1           1.6770    -1.1680     3.3000 c3         1 PIX      -0.099900
      6 C4           3.3590    -0.0070     1.1830 c3         1 PIX       0.122500
      7 C5           3.8370    -1.1750     2.0530 c3         1 PIX      -0.099900
      8 C6           3.1980    -1.0710     3.4350 c3         1 PIX      -0.062700
      9 C7           3.7050    -2.2170     4.3140 c3         1 PIX      -0.039100
     10 C12          5.1840    -2.0530     4.5480 ca         1 PIX      -0.052300
     11 C13          5.6360    -1.3270     5.6350 ca         1 PIX      -0.124000
     12 C14          6.9920    -1.1730     5.8520 ca         1 PIX      -0.123000
     13 C15          7.9010    -1.7480     4.9830 ca         1 PIX      -0.139000
     14 C17          6.0890    -2.6340     3.6810 ca         1 PIX      -0.111000
     15 C16          7.4510    -2.4770     3.8930 ca         1 PIX       0.094100
     16 O18          8.3430    -3.0420     3.0370 os         1 PIX      -0.343400
     17 C19          9.0750    -4.0930     3.4830 ca         1 PIX       0.689600
     18 C20         10.0810    -4.6200     2.6820 ca         1 PIX      -0.274300
     19 C21         10.8220    -5.6920     3.1480 ca         1 PIX      -0.020000
     20 N24          8.8290    -4.6040     4.6780 nb         1 PIX      -0.751000
     21 C23          9.5180    -5.6260     5.1500 ca         1 PIX       0.511200
     22 C24         10.5280    -6.2030     4.4050 ca         1 PIX      -0.361600
     23 C25         11.3070    -7.3700     4.9550 c3         1 PIX       0.682200
     24 F28         12.4150    -6.8960     5.6660 f          1 PIX      -0.226633
     25 F26         10.4880    -8.1160     5.8090 f          1 PIX      -0.226633
     26 F27         11.7410    -8.1780     3.8990 f          1 PIX      -0.226633
     27 OXT          1.8890    -0.0060    -1.1660 o          1 PIX      -0.868800
     28 H21C         1.3530     0.9330     2.9670 h1         1 PIX       0.041700
     29 H22C         0.1080    -0.1180     2.2670 h1         1 PIX       0.041700
     30 H41C         3.7210     0.9260     1.5990 h1         1 PIX       0.041700
     31 H42C         3.7320    -0.1310     0.1740 h1         1 PIX       0.041700
     32 H11C         1.2240    -1.1210     4.2830 hc         1 PIX       0.033700
     33 H12C         1.4160    -2.1030     2.8200 hc         1 PIX       0.033700
     34 H6           3.4610    -0.1210     3.8840 hc         1 PIX       0.045700
     35 H51C         4.9150    -1.1330     2.1500 hc         1 PIX       0.033700
     36 H52C         3.5460    -2.1100     1.5910 hc         1 PIX       0.033700
     37 H71C         3.1850    -2.2010     5.2640 hc         1 PIX       0.045700
     38 H72C         3.5210    -3.1620     3.8170 hc         1 PIX       0.045700
     39 H13          4.9250    -0.8760     6.3170 ha         1 PIX       0.132000
     40 H17          5.7350    -3.2030     2.8300 ha         1 PIX       0.152000
     41 H14          7.3430    -0.6040     6.7040 ha         1 PIX       0.126000
     42 H15          8.9640    -1.6260     5.1520 ha         1 PIX       0.130000
     43 H20         10.2830    -4.1970     1.7050 ha         1 PIX       0.161000
     44 H21         11.6110    -6.1250     2.5450 ha         1 PIX       0.154000
     45 H23          9.2870    -6.0190     6.1330 h4         1 PIX       0.037100
@<TRIPOS>BOND
     1     1     2 1
     2     2     3 1
     3     2    27 1
     4     3     4 1
     5     3     6 1
     6     4     5 1
     7     5     8 1
     8     6     7 1
     9     7     8 1
    10     8     9 1
    11     9    10 1
    12    10    11 ar
    13    10    14 ar
    14    11    12 ar
    15    12    13 ar
    16    13    15 ar
    17    14    15 ar
    18    15    16 1
    19    16    17 1
    20    17    18 ar
    21    17    20 ar
    22    18    19 ar
    23    19    22 ar
    24    20    21 ar
    25    21    22 ar
    26    22    23 1
    27    23    24 1
    28    23    25 1
    29    23    26 1
    30     4    28 1
    31     4    29 1
    32     6    30 1
    33     6    31 1
    34     5    32 1
    35     5    33 1
    36     8    34 1
    37     7    35 1
    38     7    36 1
    39     9    37 1
    40     9    38 1
    41    11    39 1
    42    14    40 1
    43    12    41 1
    44    13    42 1
    45    18    43 1
    46    19    44 1
    47    21    45 1
@<TRIPOS>SUBSTRUCTURE
     1 PIX         1 TEMP              0 ****  ****    0 ROOT
