@<TRIPOS>MOLECULE
molecule
   19    20     1     0     0
SMALL
bcc


@<TRIPOS>ATOM
      1 N1           0.0000     0.0000     0.0000 na         1 PIY      -0.290900
      2 C2           1.3640     0.0000     0.0000 cc         1 PIY       0.455000
      3 N3           1.7770     0.0000     1.2480 nd         1 PIY      -0.687000
      4 C4          -0.4010     0.0000     1.3090 cc         1 PIY      -0.273600
      5 C5           0.7170    -0.0000     2.0640 cd         1 PIY       0.314200
      6 C6           2.2300    -0.0010    -1.1990 ca         1 PIY      -0.110500
      7 C7           3.6180    -0.0020    -1.0600 ca         1 PIY      -0.108500
      8 C8           4.4200    -0.0030    -2.1830 ca         1 PIY      -0.128000
      9 C9           3.8510    -0.0030    -3.4440 ca         1 PIY      -0.123000
     10 C10          2.4750    -0.0020    -3.5880 ca         1 PIY      -0.128000
     11 C11          1.6610    -0.0070    -2.4730 ca         1 PIY      -0.108500
     12 H4          -1.4230    -0.0000     1.6700 h4         1 PIY       0.174000
     13 H5           0.7500    -0.0000     3.1470 h4         1 PIY       0.041100
     14 H7           4.0660    -0.0020    -0.0740 ha         1 PIY       0.138000
     15 H8           5.4980    -0.0030    -2.0770 ha         1 PIY       0.133000
     16 H9           4.4860    -0.0010    -4.3220 ha         1 PIY       0.131000
     17 H10          2.0360    -0.0040    -4.5780 ha         1 PIY       0.133000
     18 H11          0.5840    -0.0060    -2.5880 ha         1 PIY       0.138000
     19 HN1         -0.5950     0.0000    -0.8050 hn         1 PIY       0.299700
@<TRIPOS>BOND
     1     2     1 1
     2     1     4 1
     3     6     2 1
     4     2     3 2
     5     3     5 1
     6     4     5 2
     7     4    12 1
     8     5    13 1
     9     7     6 ar
    10    11     6 ar
    11     8     7 ar
    12     7    14 1
    13     9     8 ar
    14     8    15 1
    15     9    10 ar
    16     9    16 1
    17    10    11 ar
    18    10    17 1
    19    11    18 1
    20     1    19 1
@<TRIPOS>SUBSTRUCTURE
     1 PIY         1 TEMP              0 ****  ****    0 ROOT
