@<TRIPOS>MOLECULE
PIY
   19    20     1     0     0
SMALL
bcc


@<TRIPOS>ATOM
      1 N1         -0.0180   -0.0010   -0.0030 na        1 PIY     -0.306900
      2 C2          1.3920   -0.0010    0.0160 cc        1 PIY      0.446000
      3 N3          1.8430   -0.0010    1.3050 nd        1 PIY     -0.659000
      4 C4         -0.4500   -0.0000    1.3180 cc        1 PIY     -0.255600
      5 C5          0.7150   -0.0000    2.1110 cd        1 PIY      0.295200
      6 C6          2.2210   -0.0020   -1.1880 ca        1 PIY     -0.114500
      7 C7          3.6190   -0.0010   -1.0570 ca        1 PIY     -0.110500
      8 C8          4.4280   -0.0020   -2.1920 ca        1 PIY     -0.131500
      9 C9          3.8580   -0.0030   -3.4650 ca        1 PIY     -0.123000
     10 C10         2.4700   -0.0040   -3.5990 ca        1 PIY     -0.131500
     11 C11         1.6530   -0.0030   -2.4700 ca        1 PIY     -0.110500
     12 H4         -1.5030    0.0010    1.5890 h4        1 PIY      0.177000
     13 H5          0.7920    0.0000    3.1970 h4        1 PIY      0.043100
     14 H7          4.0830   -0.0010   -0.0580 ha        1 PIY      0.139500
     15 H8          5.5230   -0.0020   -2.0800 ha        1 PIY      0.134000
     16 H9          4.4990   -0.0040   -4.3580 ha        1 PIY      0.134000
     17 H10         2.0150   -0.0050   -4.6010 ha        1 PIY      0.134000
     18 H11         0.5640   -0.0040   -2.6130 ha        1 PIY      0.139500
     19 HN1        -0.5900   -0.0010   -0.8040 hn        1 PIY      0.300700
@<TRIPOS>BOND
     1    1    2 1   
     2    1    4 1   
     3    1   19 1   
     4    2    3 2   
     5    2    6 1   
     6    3    5 1   
     7    4    5 2   
     8    4   12 1   
     9    5   13 1   
    10    6    7 ar  
    11    6   11 ar  
    12    7    8 ar  
    13    7   14 1   
    14    8    9 ar  
    15    8   15 1   
    16    9   10 ar  
    17    9   16 1   
    18   10   11 ar  
    19   10   17 1   
    20   11   18 1   
@<TRIPOS>SUBSTRUCTURE
     1 PIY         1 TEMP              0 ****  ****    0 ROOT
