@<TRIPOS>MOLECULE
molecule
   53    53     1     0     0
SMALL
bcc


@<TRIPOS>ATOM
      1 CAA          0.0000     0.0000     0.0000 c3         1 PJ2      -0.092100
      2 OAB         13.7360     0.6260    -1.7910 o          1 PJ2      -0.845300
      3 OAD         12.5700    -0.9800    -2.7640 o          1 PJ2      -0.845300
      4 OAE          6.0850    -1.2200     2.3180 oh         1 PJ2      -0.601800
      5 CAF         12.5940     1.2210     3.0350 c2         1 PJ2      -0.294200
      6 CAG         11.7690     1.9720     3.7250 c2         1 PJ2      -0.427200
      7 CAH          8.6010     3.2930     6.1300 ce         1 PJ2      -0.293200
      8 CAI          9.8070     2.8600     5.7960 c2         1 PJ2      -0.059200
      9 CAK          1.5290     0.0000     0.0000 c3         1 PJ2      -0.084400
     10 CAL         12.0570     0.2590     2.0080 c3         1 PJ2      -0.161200
     11 CAM         10.2820     1.7540     3.6150 c3         1 PJ2      -0.116200
     12 CAN          6.1180     0.1270     4.3250 c3         1 PJ2      -0.116200
     13 CAO          2.0390     0.0000     1.4430 c3         1 PJ2      -0.082400
     14 CAP         12.7540     0.5010     0.6680 c3         1 PJ2      -0.013400
     15 CAQ          3.5690     0.0000     1.4440 c3         1 PJ2      -0.078400
     16 CAR         12.2100    -0.4770    -0.3740 c3         1 PJ2      -0.187400
     17 CAS          4.0790     0.0000     2.8870 c3         1 PJ2      -0.111400
     18 CAT         12.8960    -0.2380    -1.6940 c          1 PJ2       0.892600
     19 CAU          7.5530     2.3940     5.6370 c          1 PJ2       0.577500
     20 CAV          8.2060     1.2840     4.9180 ce         1 PJ2      -0.244400
     21 CAW          5.6080     0.0020     2.8870 c3         1 PJ2       0.149100
     22 CAX          9.6880     1.5760     5.0140 c3         1 PJ2       0.029700
     23 HAA         -0.3610    -0.8840     0.5110 hc         1 PJ2       0.029700
     24 HAAA        -0.3610     0.8850     0.5110 hc         1 PJ2       0.029700
     25 HAAB        -0.3610    -0.0000    -1.0210 hc         1 PJ2       0.029700
     26 HOAE         5.9570    -1.9240     2.9320 ho         1 PJ2       0.396000
     27 HAF         12.2480     0.2360     3.3220 ha         1 PJ2       0.339000
     28 HAG         11.1980     2.4210     2.9220 ha         1 PJ2       0.316000
     29 HAH          8.4130     4.1970     6.6970 ha         1 PJ2       0.151000
     30 HAI         10.7380     3.3530     6.0470 ha         1 PJ2       0.172000
     31 HAJ          8.2220    -0.5000     3.8200 ha         1 PJ2       0.141000
     32 HAK          1.8910     0.8850    -0.5110 hc         1 PJ2       0.043200
     33 HAKA         1.8910    -0.8850    -0.5110 hc         1 PJ2       0.043200
     34 HAL         10.9910     0.4110     1.8940 hc         1 PJ2       0.031700
     35 HALA        12.2440    -0.7580     2.3340 hc         1 PJ2       0.031700
     36 HAM         10.0900     0.8660     3.0250 hc         1 PJ2       0.039200
     37 HAMA         9.8260     2.6120     3.1350 hc         1 PJ2       0.039200
     38 HAN          5.8320    -0.7540     4.8870 hc         1 PJ2       0.077200
     39 HANA         5.6850     1.0070     4.7860 hc         1 PJ2       0.077200
     40 HAO          1.6780    -0.8850     1.9530 hc         1 PJ2       0.037200
     41 HAOA         1.6770     0.8840     1.9530 hc         1 PJ2       0.037200
     42 HAP         13.8210     0.3500     0.7830 hc         1 PJ2       0.065700
     43 HAPA        12.5670     1.5170     0.3420 hc         1 PJ2       0.065700
     44 HAQ          3.9310    -0.8840     0.9330 hc         1 PJ2       0.051700
     45 HAQA         3.9310     0.8850     0.9330 hc         1 PJ2       0.051700
     46 HAR         11.1430    -0.3260    -0.4890 hc         1 PJ2       0.029700
     47 HARA        12.3970    -1.4930    -0.0490 hc         1 PJ2       0.029700
     48 HAS          3.7170     0.8840     3.3970 hc         1 PJ2       0.044200
     49 HASA         3.7180    -0.8850     3.3970 hc         1 PJ2       0.044200
     50 HAW          5.9690     0.8380     2.3010 h1         1 PJ2       0.086700
     51 HAX         10.1910     0.7730     5.5390 hc         1 PJ2       0.077700
     52 CAJ          7.6190     0.2510     4.3150 c2         1 PJ2      -0.061200
     53 OAC          6.3540     2.5380     5.7940 o          1 PJ2      -0.545100
@<TRIPOS>BOND
     1     1     9 1
     2     2    18 1
     3    53    19 2
     4     3    18 1
     5     4    21 1
     6     5     6 2
     7     5    10 1
     8     6    11 1
     9     7     8 2
    10     7    19 1
    11     8    22 1
    12    52    12 1
    13    52    20 2
    14     9    13 1
    15    10    14 1
    16    11    22 1
    17    12    21 1
    18    13    15 1
    19    14    16 1
    20    15    17 1
    21    16    18 1
    22    17    21 1
    23    19    20 1
    24    20    22 1
    25     1    23 1
    26     1    24 1
    27     1    25 1
    28     4    26 1
    29     5    27 1
    30     6    28 1
    31     7    29 1
    32     8    30 1
    33    52    31 1
    34     9    32 1
    35     9    33 1
    36    10    34 1
    37    10    35 1
    38    11    36 1
    39    11    37 1
    40    12    38 1
    41    12    39 1
    42    13    40 1
    43    13    41 1
    44    14    42 1
    45    14    43 1
    46    15    44 1
    47    15    45 1
    48    16    46 1
    49    16    47 1
    50    17    48 1
    51    17    49 1
    52    21    50 1
    53    22    51 1
@<TRIPOS>SUBSTRUCTURE
     1 PJ2         1 TEMP              0 ****  ****    0 ROOT
