@<TRIPOS>MOLECULE
PJ2
   53    46     1     0     0
SMALL
bcc


@<TRIPOS>ATOM
      1 CAA         1.6870   -0.5050   -0.7990 c2        1 PJ2     -0.223000
      2 OAB        12.5910    0.7370    2.3860 o         1 PJ2     -0.550000
      3 OAD        12.6330   -0.7030    0.6790 o         1 PJ2     -0.550000
      4 OAE         4.6620   -0.1730    0.8770 oh        1 PJ2     -0.287000
      5 CAF        18.2210    0.1570    1.5570 c2        1 PJ2     -0.477000
      6 CAG        19.4820    0.4690    1.3400 c1        1 PJ2      0.249000
      7 CAH         7.4430    2.9330    5.5510 c2        1 PJ2     -0.181000
      8 CAI         8.7900    2.9260    5.3190 c2        1 PJ2     -0.101000
      9 CAK         1.6460   -0.1980   -2.0880 c2        1 PJ2     -0.223000
     10 CAL        17.1250    0.8560    0.9530 c1        1 PJ2      0.035000
     11 CAM        10.3080    1.7170    3.7250 c2        1 PJ2     -0.060000
     12 CAN         6.5240   -0.0760    2.3580 c1        1 PJ2     -0.373000
     13 CAO         1.1990    1.3200    2.3790 c3        1 PJ2     -0.212500
     14 CAP        15.8340    0.5290    1.1880 c1        1 PJ2     -0.276000
     15 CAQ         2.1410    0.4940    3.2180 c3        1 PJ2     -0.168000
     16 CAR        14.6340    0.3420    1.3110 c1        1 PJ2     -0.007000
     17 CAS         2.5280    1.2010    4.4900 c3        1 PJ2     -0.212500
     18 CAT        13.1920    0.1120    1.4640 c2        1 PJ2      0.410000
     19 CAU         6.8240    1.9850    4.6150 c2        1 PJ2      0.081000
     20 CAV         7.7960    1.4040    3.8170 c2        1 PJ2     -0.180000
     21 CAW         5.4360   -0.6450    1.9170 c2        1 PJ2      0.033000
     22 CAX         9.0970    1.9810    4.2280 c2        1 PJ2     -0.130000
     23 HAA         0.9890    0.8020    1.4110 hc        1 PJ2      0.071500
     24 HAAA        0.8090   -0.8780   -0.2530 ha        1 PJ2      0.111250
     25 HAAB        2.5990   -0.4100   -0.1900 ha        1 PJ2      0.111250
     26 HOAE        5.1170    0.5740    0.4650 ho        1 PJ2      0.217000
     27 HAF        18.0120   -0.6930    2.2460 ha        1 PJ2      0.176000
     28 HAG        11.2240    2.1970    4.1010 ha        1 PJ2      0.161000
     29 HAH         6.8740    3.5070    6.2770 ha        1 PJ2      0.144000
     30 HAI         9.5570    3.5070    5.8290 ha        1 PJ2      0.139000
     31 HAJ         5.2560    1.1440    3.9560 ho        1 PJ2      0.232000
     32 HAK         0.7360   -0.2940   -2.6950 ha        1 PJ2      0.111250
     33 HAKA        2.5220    0.1730   -2.6370 ha        1 PJ2      0.111250
     34 HAL        10.4410   -1.3680    2.6000 ha        1 PJ2      0.000000
     35 HALA       10.9960   -1.1260    2.2890 ha        1 PJ2     -0.000000
     36 HAM        11.7830   -0.2680    4.9940 ha        1 PJ2      0.000000
     37 HAMA       11.8990   -0.2500    4.3240 ha        1 PJ2     -0.000000
     38 HAN         8.6100    0.0810    2.3160 ha        1 PJ2      0.168000
     39 HANA        3.0520    2.1630    4.2660 hc        1 PJ2      0.071500
     40 HAO         0.2330    1.4830    2.9140 hc        1 PJ2      0.071500
     41 HAOA        1.6470    2.3180    2.1540 hc        1 PJ2      0.071500
     42 HAP        10.6500    0.4430    0.7160 ha        1 PJ2      0.000000
     43 HAPA       10.0140    0.6520    0.5950 ha        1 PJ2     -0.000000
     44 HAQ         3.0670    0.2630    2.6200 hc        1 PJ2      0.082000
     45 HAQA        1.6570   -0.4880    3.4650 hc        1 PJ2      0.082000
     46 HAR        10.7190   -1.7780    0.0810 ha        1 PJ2      0.000000
     47 HARA       10.3100   -2.2080   -0.2490 ha        1 PJ2     -0.000000
     48 HAS         3.2210    0.5680    5.0960 hc        1 PJ2      0.071500
     49 HASA        4.9810   -1.5640    2.3240 h4        1 PJ2      0.160000
     50 HAW         1.6250    1.4290    5.1070 hc        1 PJ2      0.071500
     51 HAX        10.4900    1.0030    2.8990 ha        1 PJ2      0.161000
     52 CAJ         7.6570    0.4250    2.7810 c2        1 PJ2      0.055000
     53 OAC         5.4780    1.8000    4.6400 oh        1 PJ2     -0.248000
@<TRIPOS>BOND
     1    1    9 1   
     2    1   24 1   
     3    1   25 1   
     4    2   18 1   
     5    3   18 1   
     6    4   21 1   
     7    4   26 1   
     8    5    6 1   
     9    5   10 1   
    10    5   27 1   
    11    7    8 1   
    12    7   19 1   
    13    7   29 1   
    14    8   22 1   
    15    8   30 1   
    16    9   32 1   
    17    9   33 1   
    18   10   14 1   
    19   11   22 1   
    20   11   28 1   
    21   11   51 1   
    22   12   21 1   
    23   12   52 1   
    24   13   15 1   
    25   13   23 1   
    26   13   40 1   
    27   13   41 1   
    28   14   16 1   
    29   15   17 1   
    30   15   44 1   
    31   15   45 1   
    32   16   18 1   
    33   17   39 1   
    34   17   48 1   
    35   17   50 1   
    36   19   20 1   
    37   19   53 1   
    38   20   22 1   
    39   20   52 1   
    40   21   49 1   
    41   31   53 1   
    42   34   35 1   
    43   36   37 1   
    44   38   52 1   
    45   42   43 1   
    46   46   47 1   
@<TRIPOS>SUBSTRUCTURE
     1 PJ2         1 TEMP              0 ****  ****    0 ROOT
