@<TRIPOS>MOLECULE
PJ7
   13    13     1     0     0
SMALL
bcc


@<TRIPOS>ATOM
      1 N1         -0.0040    0.1820   -0.1190 nh        1 PJ7     -0.763200
      2 O1          2.9730    0.1160    4.5530 o         1 PJ7     -0.806800
      3 O2          4.8750   -0.0110    3.3780 o         1 PJ7     -0.806800
      4 O3          3.4530   -0.1130    0.9850 os        1 PJ7     -0.330800
      5 C5          1.2210    0.0560    0.5510 cc        1 PJ7     -0.069700
      6 C6          2.4830   -0.1040   -0.0150 cd        1 PJ7      0.136600
      7 C7          1.4300    0.1490    1.9880 cc        1 PJ7     -0.327300
      8 C8          2.7950    0.0420    2.2020 cd        1 PJ7      0.262200
      9 C9          3.6230    0.0500    3.4740 c         1 PJ7      0.827100
     10 HN1        -0.0670   -0.4770   -0.8710 hn        1 PJ7      0.347800
     11 HN1A       -0.7630    0.0370    0.5180 hn        1 PJ7      0.347800
     12 H6          2.8610   -0.2110   -1.0220 h4        1 PJ7      0.028100
     13 H7          0.6670    0.2840    2.7460 ha        1 PJ7      0.156000
@<TRIPOS>BOND
     1    1    5 1   
     2    1   10 1   
     3    1   11 1   
     4    2    9 1   
     5    3    9 1   
     6    4    6 1   
     7    4    8 1   
     8    5    6 2   
     9    5    7 1   
    10    6   12 1   
    11    7    8 2   
    12    7   13 1   
    13    8    9 1   
@<TRIPOS>SUBSTRUCTURE
     1 PJ7         1 TEMP              0 ****  ****    0 ROOT
