@<TRIPOS>MOLECULE
molecule
   39    41     1     0     0
SMALL
bcc


@<TRIPOS>ATOM
      1 O            0.0000     0.0000     0.0000 o          1 PJA      -0.548100
      2 CAN          1.2140     0.0000     0.0000 c          1 PJA       0.568500
      3 CBB          1.9460     0.0000     1.2690 ca         1 PJA      -0.222600
      4 CBF          3.3400    -0.1100     1.2820 ca         1 PJA       0.237100
      5 OAS          4.0570    -0.3040     0.1580 os         1 PJA      -0.198200
      6 CBE          5.0040     0.5650    -0.2610 ca         1 PJA       0.041100
      7 CBA          4.9450     0.9130    -1.6300 ca         1 PJA      -0.053600
      8 CAU          3.8930     0.3330    -2.4860 c          1 PJA       0.883200
      9 OAH          3.1620    -0.5330    -2.0470 o          1 PJA      -0.817300
     10 OAE          3.7420     0.7650    -3.7530 o          1 PJA      -0.817300
     11 CAL          5.8700     1.7980    -2.1770 ca         1 PJA      -0.180000
     12 CAZ          6.8550     2.3390    -1.3720 ca         1 PJA       0.128100
     13 OAQ          7.7650     3.2040    -1.8950 os         1 PJA      -0.342900
     14 CAA          7.6440     3.5100    -3.2860 c3         1 PJA       0.129700
     15 CAY          6.9120     1.9980    -0.0310 ca         1 PJA      -0.136300
     16 CAD          7.9890     2.5940     0.8380 c3         1 PJA      -0.026800
     17 CBD          5.9910     1.1120     0.5310 ca         1 PJA       0.115100
     18 OAR          6.1660     0.8720     1.8620 os         1 PJA      -0.356200
     19 CBC          5.5030    -0.1200     2.4710 c          1 PJA       0.779200
     20 OAG          6.1070    -1.0350     2.9940 o          1 PJA      -0.560500
     21 CBG          4.0340    -0.0860     2.4950 ca         1 PJA      -0.268600
     22 CAW          3.3310    -0.0120     3.7000 ca         1 PJA       0.021700
     23 CAC          4.0750    -0.0390     5.0110 c3         1 PJA      -0.057800
     24 CAK          1.9560     0.0860     3.6910 ca         1 PJA      -0.243000
     25 CAX          1.2560     0.1170     2.4910 ca         1 PJA       0.196100
     26 OAJ         -0.0920     0.2540     2.4980 oh         1 PJA      -0.481100
     27 H2           1.7550     0.0350    -0.9380 h4         1 PJA       0.106200
     28 H5           5.8960     1.9620    -3.2480 ha         1 PJA       0.171000
     29 H6           6.6640     3.9300    -3.4790 h1         1 PJA       0.040367
     30 H7           7.7700     2.6040    -3.8670 h1         1 PJA       0.040367
     31 H8           8.4060     4.2270    -3.5650 h1         1 PJA       0.040367
     32 H9           7.5380     3.2510     1.5720 hc         1 PJA       0.039033
     33 H10          8.5250     1.8010     1.3440 hc         1 PJA       0.039033
     34 H11          8.6780     3.1600     0.2220 hc         1 PJA       0.039033
     35 H12          4.5880    -0.9880     5.1150 hc         1 PJA       0.050033
     36 H13          4.7980     0.7670     5.0320 hc         1 PJA       0.050033
     37 H14          3.3730     0.0830     5.8270 hc         1 PJA       0.050033
     38 H15          1.4190     0.1770     4.6270 ha         1 PJA       0.131000
     39 H16         -0.3260     1.0380     2.9660 ho         1 PJA       0.415000
@<TRIPOS>BOND
     1    14    13 1
     2    13    12 1
     3    16    15 1
     4    12    15 ar
     5    12    11 ar
     6    15    17 ar
     7    11     7 ar
     8    17    18 1
     9    17     6 ar
    10    18    19 1
    11     7     6 ar
    12     7     8 1
    13     6     5 1
    14     9     8 1
    15    20    19 2
    16    19    21 1
    17     8    10 1
    18     5     4 1
    19    21     4 ar
    20    21    22 ar
    21     4     3 ar
    22    23    22 1
    23    22    24 ar
    24     3     2 1
    25     3    25 ar
    26     2     1 2
    27    24    25 ar
    28    25    26 1
    29     2    27 1
    30    11    28 1
    31    14    29 1
    32    14    30 1
    33    14    31 1
    34    16    32 1
    35    16    33 1
    36    16    34 1
    37    23    35 1
    38    23    36 1
    39    23    37 1
    40    24    38 1
    41    26    39 1
@<TRIPOS>SUBSTRUCTURE
     1 PJA         1 TEMP              0 ****  ****    0 ROOT
