@<TRIPOS>MOLECULE
PJA
   39    41     1     0     0
SMALL
bcc


@<TRIPOS>ATOM
      1 O           0.2200   -1.3250   -0.0710 o         1 PJA     -0.546100
      2 CAN         1.3370   -0.8040   -0.0970 c         1 PJA      0.575500
      3 CBB         2.0020   -0.3270    1.1410 ca        1 PJA     -0.232600
      4 CBF         3.4050   -0.2690    1.2160 ca        1 PJA      0.233100
      5 OAS         4.1150   -0.6480    0.0820 os        1 PJA     -0.218200
      6 CBE         4.9920    0.3530   -0.3610 ca        1 PJA      0.035100
      7 CBA         4.7570    0.9990   -1.5800 ca        1 PJA     -0.058600
      8 CAU         3.5230    0.7750   -2.4550 c         1 PJA      0.911200
      9 OAH         3.1560   -0.4080   -2.6860 o         1 PJA     -0.805800
     10 OAE         2.9650    1.8090   -2.9120 o         1 PJA     -0.805800
     11 CAL         5.7040    1.9240   -2.0340 ca        1 PJA     -0.179000
     12 CAZ         6.8480    2.2040   -1.2840 ca        1 PJA      0.112100
     13 OAQ         7.8240    3.1080   -1.6770 os        1 PJA     -0.338900
     14 CAA         7.5610    3.8120   -2.8840 c3        1 PJA      0.115700
     15 CAY         7.0900    1.5770   -0.0420 ca        1 PJA     -0.117300
     16 CAD         8.3090    1.8830    0.7360 c3        1 PJA     -0.030800
     17 CBD         6.1390    0.6450    0.3980 ca        1 PJA      0.093100
     18 OAR         6.4500   -0.0370    1.5700 os        1 PJA     -0.331200
     19 CBC         5.5190   -0.1530    2.5810 c         1 PJA      0.759200
     20 OAG         6.0800   -0.5100    3.6240 o         1 PJA     -0.610500
     21 CBG         4.0770    0.0540    2.4130 ca        1 PJA     -0.253600
     22 CAW         3.3180    0.4650    3.5290 ca        1 PJA      0.052700
     23 CAC         3.9780    0.8560    4.7980 c3        1 PJA     -0.067800
     24 CAK         1.9280    0.4940    3.4510 ca        1 PJA     -0.277000
     25 CAX         1.2760    0.0720    2.2800 ca        1 PJA      0.211100
     26 OAJ        -0.0910    0.0550    2.1940 oh        1 PJA     -0.457100
     27 H2          1.9330   -0.6720   -1.0380 h4        1 PJA      0.111200
     28 H5          5.4920    2.4340   -2.9860 ha        1 PJA      0.163000
     29 H6          6.6130    4.3990   -2.8040 h1        1 PJA      0.040367
     30 H7          8.4410    4.4960   -2.9860 h1        1 PJA      0.040367
     31 H8          7.5090    3.1060   -3.7490 h1        1 PJA      0.040367
     32 H9          8.5010    2.9850    0.7340 hc        1 PJA      0.042367
     33 H10         8.2140    1.5280    1.7910 hc        1 PJA      0.042367
     34 H11         9.1930    1.3780    0.2700 hc        1 PJA      0.042367
     35 H12         4.3730   -0.0590    5.3110 hc        1 PJA      0.055700
     36 H13         3.2660    1.3770    5.4830 hc        1 PJA      0.055700
     37 H14         4.8470    1.5310    4.5980 hc        1 PJA      0.055700
     38 H15         1.3350    0.8320    4.3120 ha        1 PJA      0.131000
     39 H16        -0.4470    0.3680    3.0390 ho        1 PJA      0.410000
@<TRIPOS>BOND
     1    1    2 2   
     2    2    3 1   
     3    2   27 1   
     4    3    4 ar  
     5    3   25 ar  
     6    4    5 1   
     7    4   21 ar  
     8    5    6 1   
     9    6    7 ar  
    10    6   17 ar  
    11    7    8 1   
    12    7   11 ar  
    13    8    9 1   
    14    8   10 1   
    15   11   12 ar  
    16   11   28 1   
    17   12   13 1   
    18   12   15 ar  
    19   13   14 1   
    20   14   29 1   
    21   14   30 1   
    22   14   31 1   
    23   15   16 1   
    24   15   17 ar  
    25   16   32 1   
    26   16   33 1   
    27   16   34 1   
    28   17   18 1   
    29   18   19 1   
    30   19   20 2   
    31   19   21 1   
    32   21   22 ar  
    33   22   23 1   
    34   22   24 ar  
    35   23   35 1   
    36   23   36 1   
    37   23   37 1   
    38   24   25 ar  
    39   24   38 1   
    40   25   26 1   
    41   26   39 1   
@<TRIPOS>SUBSTRUCTURE
     1 PJA         1 TEMP              0 ****  ****    0 ROOT
