@<TRIPOS>MOLECULE
molecule
   49    53     1     0     0
SMALL
bcc


@<TRIPOS>ATOM
      1 C5           0.0000     0.0000     0.0000 ca         1 PJC      -0.484900
      2 C6           1.4190     0.0000     0.0000 ca         1 PJC       0.647100
      3 C8           1.3900    -0.0440     2.3930 ca         1 PJC       0.970900
      4 C10         -0.6560    -0.1060     1.2410 ca         1 PJC       0.535200
      5 N12          2.1200    -0.1820     3.5420 nh         1 PJC      -0.786300
      6 C13          3.5880    -0.1160     3.5250 c3         1 PJC       0.241300
      7 C20          1.8380    -2.1790     4.8670 c3         1 PJC      -0.203900
      8 C28          3.3250    -0.7400    -1.5860 cc         1 PJC       0.014800
      9 F1          -1.4350     1.1400    -1.5420 f          1 PJC      -0.226300
     10 C2          -0.8920    -0.0650    -1.2380 c3         1 PJC       0.721200
     11 F3          -0.2230    -0.5550    -2.3080 f          1 PJC      -0.226300
     12 F4          -1.8710    -0.9690    -0.9800 f          1 PJC      -0.226300
     13 N7           2.0340     0.0000     1.1970 nb         1 PJC      -0.811000
     14 N9           0.0400    -0.1680     2.3880 nb         1 PJC      -0.800000
     15 C16          4.0570    -1.6060     3.5030 c3         1 PJC      -0.203900
     16 C19          3.3080    -2.4200     4.5500 c          1 PJC       0.568100
     17 C23          1.5110    -0.6530     4.7980 c3         1 PJC       0.241300
     18 O26          3.9100    -3.2780     5.1570 o          1 PJC      -0.529100
     19 C27          2.3420     0.1100    -1.2060 cd         1 PJC      -0.249000
     20 C29          3.9110    -0.1240    -2.7960 c          1 PJC       0.692700
     21 N30          3.2080     0.9630    -3.1610 ns         1 PJC      -0.579500
     22 C32          2.2470     1.1410    -2.2380 c          1 PJC       0.705700
     23 O33          1.4200     2.0330    -2.2230 o          1 PJC      -0.562500
     24 O34          4.8700    -0.5670    -3.4010 o          1 PJC      -0.583500
     25 C35          3.9340    -1.8940    -0.8730 cc         1 PJC      -0.134200
     26 C36          5.2240    -2.2830    -0.9910 cd         1 PJC      -0.063100
     27 N38          5.4740    -3.3170    -0.2310 na         1 PJC      -0.138400
     28 C40          4.3680    -3.7220     0.4160 ca         1 PJC      -0.065200
     29 C41          3.2930    -2.8950     0.0610 ca         1 PJC      -0.070800
     30 C42          2.0100    -3.1350     0.5690 ca         1 PJC      -0.077000
     31 C44          1.8750    -4.1910     1.4950 ca         1 PJC      -0.158000
     32 C46          2.9780    -5.0030     1.8770 ca         1 PJC      -0.108000
     33 C48          4.2530    -4.7920     1.3210 ca         1 PJC      -0.145000
     34 H10         -1.7380    -0.1590     1.2690 h4         1 PJC       0.046100
     35 H13          3.9310     0.3980     2.6350 h1         1 PJC       0.074700
     36 H13A         3.9520     0.3790     4.4170 h1         1 PJC       0.074700
     37 H20          1.6220    -2.5460     5.8630 hc         1 PJC       0.081450
     38 H20A         1.2260    -2.7080     4.1450 hc         1 PJC       0.081450
     39 H16          5.1190    -1.6470     3.7140 hc         1 PJC       0.081450
     40 H16A         3.8650    -2.0240     2.5230 hc         1 PJC       0.081450
     41 H23          0.4390    -0.5010     4.7740 h1         1 PJC       0.074700
     42 H23A         1.9510    -0.1380     5.6430 h1         1 PJC       0.074700
     43 HN30         3.3810     1.5430    -3.9580 hn         1 PJC       0.368500
     44 H36          5.7400    -2.1700    -1.9370 h4         1 PJC       0.196000
     45 H42          1.1650    -2.5210     0.2840 ha         1 PJC       0.142000
     46 H44          0.9060    -4.3780     1.9410 ha         1 PJC       0.133000
     47 H46          2.8310    -5.8030     2.5920 ha         1 PJC       0.140000
     48 H48          5.1060    -5.3990     1.6000 ha         1 PJC       0.142000
     49 HN38         6.3720    -3.7500    -0.1420 hn         1 PJC       0.304700
@<TRIPOS>BOND
     1    10     1 1
     2     1     4 ar
     3     1     2 ar
     4    19     2 1
     5     2    13 ar
     6    14     3 ar
     7    13     3 ar
     8     3     5 1
     9     4    14 ar
    10     4    34 1
    11     5    17 1
    12     5     6 1
    13     6    15 1
    14     6    35 1
    15     6    36 1
    16    17     7 1
    17     7    16 1
    18     7    37 1
    19     7    38 1
    20    20     8 1
    21    19     8 2
    22     8    25 1
    23     9    10 1
    24    11    10 1
    25    12    10 1
    26    15    16 1
    27    15    39 1
    28    15    40 1
    29    16    18 2
    30    17    41 1
    31    17    42 1
    32    22    19 1
    33    21    20 1
    34    20    24 2
    35    21    22 1
    36    21    43 1
    37    23    22 2
    38    25    29 1
    39    25    26 2
    40    26    27 1
    41    26    44 1
    42    28    27 1
    43    29    28 ar
    44    28    33 ar
    45    30    29 ar
    46    30    31 ar
    47    30    45 1
    48    31    32 ar
    49    31    46 1
    50    32    33 ar
    51    32    47 1
    52    33    48 1
    53    27    49 1
@<TRIPOS>SUBSTRUCTURE
     1 PJC         1 TEMP              0 ****  ****    0 ROOT
