@<TRIPOS>MOLECULE
PJL
   17    17     1     0     0
SMALL
bcc


@<TRIPOS>ATOM
      1 O14          0.0000     0.0000     0.0000 o          1 PJL      -0.596000
      2 C12          1.2080     0.0000     0.0000 c2         1 PJL       0.443000
      3 O13          1.8790     0.0000     1.1630 o          1 PJL      -0.596000
      4 C10          1.9610    -0.0070    -1.3040 DU         1 PJL      -0.299000
      5 C4           0.9830    -0.0130    -2.4500 c2         1 PJL      -0.122000
      6 N5           1.0520     0.9010    -3.3650 n2         1 PJL      -0.206000
      7 C6           0.1760     0.8960    -4.3900 c2         1 PJL       0.336000
      8 O8          -0.6800     0.0310    -4.4550 o          1 PJL      -0.384000
      9 C7           0.2510     1.8960    -5.3920 c2         1 PJL      -0.255000
     10 C2          -0.6240     1.8900    -6.4150 c2         1 PJL       0.051000
     11 O1          -0.5520     2.8420    -7.3670 oh         1 PJL      -0.243000
     12 H2           2.5840     0.8770    -1.3660 ha         1 PJL       0.073500
     13 H3           2.5840    -0.8920    -1.3570 ha         1 PJL       0.073500
     14 H4           2.0050    -0.3650    -2.5170 DU         1 PJL       0.297000
     15 H5           1.0000     2.6760    -5.3240 ha         1 PJL       0.124000
     16 H6          -1.3540     1.0940    -6.4990 h4         1 PJL       0.112000
     17 H7          -1.3860     2.9150    -7.8020 ho         1 PJL       0.190000
@<TRIPOS>BOND
     1     1     2 1   
     2     2     3 1   
     3     2     4 1   
     4     4     5 1   
     5     4    12 1   
     6     4    13 1   
     7     4    14 1   
     8     5     6 1   
     9     5    14 1   
    10     6     7 1   
    11     7     8 1   
    12     7     9 1   
    13     9    10 1   
    14     9    15 1   
    15    10    11 1   
    16    10    16 1   
    17    11    17 1   
@<TRIPOS>SUBSTRUCTURE
     1 PJL         1 TEMP              0 ****  ****    0 ROOT
