@<TRIPOS>MOLECULE
molecule
   17    16     1     0     0
SMALL
bcc


@<TRIPOS>ATOM
      1 O14          0.0000     0.0000     0.0000 o          1 PJL      -0.839800
      2 C12          1.2080     0.0000     0.0000 c          1 PJL       0.897600
      3 O13          1.8790     0.0000     1.1630 o          1 PJL      -0.839800
      4 C10          1.9610    -0.0070    -1.3040 c3         1 PJL      -0.261700
      5 C4           0.9830    -0.0130    -2.4500 c2         1 PJL       0.614200
      6 N5           1.0520     0.9010    -3.3650 ne         1 PJL      -0.766100
      7 C6           0.1760     0.8960    -4.3900 c          1 PJL       0.720700
      8 O8          -0.6800     0.0310    -4.4550 o          1 PJL      -0.640100
      9 C7           0.2510     1.8960    -5.3920 ce         1 PJL      -0.266200
     10 C2          -0.6240     1.8900    -6.4150 c2         1 PJL       0.055100
     11 O1          -0.5520     2.8420    -7.3670 oh         1 PJL      -0.501100
     12 H2           2.5840     0.8770    -1.3660 hc         1 PJL       0.061700
     13 H3           2.5840    -0.8920    -1.3570 hc         1 PJL       0.061700
     14 H4           0.2210    -0.7810    -2.5090 h4         1 PJL      -0.002200
     15 H5           1.0120     2.6650    -5.3340 ha         1 PJL       0.152000
     16 H6          -1.3850     1.1220    -6.4730 h4         1 PJL       0.143000
     17 H7          -1.2280     2.6970    -8.0090 ho         1 PJL       0.412000
@<TRIPOS>BOND
     1    11    10 1
     2    10     9 2
     3     9     7 1
     4     8     7 2
     5     7     6 1
     6     6     5 2
     7     1     2 1
     8     5     4 1
     9     2     4 1
    10     2     3 1
    11     4    12 1
    12     4    13 1
    13     5    14 1
    14     9    15 1
    15    10    16 1
    16    11    17 1
@<TRIPOS>SUBSTRUCTURE
     1 PJL         1 TEMP              0 ****  ****    0 ROOT
