@<TRIPOS>MOLECULE
PJZ
   82    81     1     0     0
SMALL
bcc


@<TRIPOS>ATOM
      1 C1          1.3730   -1.8700    0.0180 c3        1 PJZ     -0.114100
      2 C2          2.6960   -1.3280    0.5110 c3        1 PJZ      0.148100
      3 O2          2.9920   -0.0790   -0.1440 os        1 PJZ     -0.439900
      4 C3          2.6980   -1.0220    2.0080 c3        1 PJZ      0.135400
      5 O3          1.5000   -0.2940    2.3100 os        1 PJZ     -0.434900
      6 C12        -2.5460    8.8500   15.4480 c3        1 PJZ     -0.090100
      7 C13        -2.0100    8.8240   14.0370 c3        1 PJZ     -0.054200
      8 C14        -3.0140    8.3150   13.0740 c2        1 PJZ     -0.146200
      9 C15        -2.7200    7.4650   12.0790 ce        1 PJZ     -0.148000
     10 C16        -3.7090    6.9960   11.1350 ce        1 PJZ     -0.114000
     11 C17        -3.4970    6.1400   10.1180 cf        1 PJZ     -0.135000
     12 C18        -2.2390    5.5180    9.7870 cf        1 PJZ     -0.116000
     13 C19        -1.9910    4.7680    8.6960 ce        1 PJZ     -0.131000
     14 C20        -2.9300    4.4720    7.6420 ce        1 PJZ     -0.119000
     15 C21        -2.7360    3.6010    6.6350 cf        1 PJZ     -0.129000
     16 C22        -1.5600    2.7880    6.4250 cf        1 PJZ     -0.128000
     17 C23        -1.4380    1.9440    5.3900 c2        1 PJZ     -0.165200
     18 C24        -0.2510    1.0820    5.1810 c3        1 PJZ     -0.049200
     19 C25         0.1800    1.0940    3.7270 c3        1 PJZ     -0.124400
     20 C26         1.4410    0.3100    3.5370 c         1 PJZ      0.633100
     21 O28         2.3890    0.1590    4.3100 o         1 PJZ     -0.543000
     22 C35         4.7490    8.1250  -12.3090 c3        1 PJZ     -0.092100
     23 C36         4.3310    6.8000  -11.7250 c3        1 PJZ     -0.080400
     24 C37         4.5710    6.7500  -10.2310 c3        1 PJZ     -0.079400
     25 C38         4.1500    5.4180   -9.6500 c3        1 PJZ     -0.079400
     26 C39         4.3910    5.3690   -8.1570 c3        1 PJZ     -0.078400
     27 C40         3.9700    4.0360   -7.5750 c3        1 PJZ     -0.079400
     28 C41         4.2130    3.9870   -6.0820 c3        1 PJZ     -0.079400
     29 C42         3.7920    2.6540   -5.5020 c3        1 PJZ     -0.079400
     30 C43         4.0350    2.6050   -4.0080 c3        1 PJZ     -0.078400
     31 C44         3.6190    1.2680   -3.4330 c3        1 PJZ     -0.079400
     32 C45         3.8480    1.2340   -1.9370 c3        1 PJZ     -0.127400
     33 C46         3.5710   -0.1300   -1.3830 c         1 PJZ      0.635100
     34 O47         3.8110   -1.2320   -1.8800 o         1 PJZ     -0.545000
     35 H1          1.4450   -2.1050   -1.0720 hc        1 PJZ      0.053700
     36 H2          1.1180   -2.8000    0.5790 hc        1 PJZ      0.053700
     37 H3          0.5630   -1.1190    0.1760 hc        1 PJZ      0.053700
     38 H4          3.5270   -2.0600    0.2980 h1        1 PJZ      0.076700
     39 H5          3.5930   -0.4080    2.2900 h1        1 PJZ      0.065200
     40 H6          2.6860   -1.9780    2.5930 h1        1 PJZ      0.065200
     41 H7         -3.4520    9.4990   15.5150 hc        1 PJZ      0.035700
     42 H8         -1.7720    9.2500   16.1460 hc        1 PJZ      0.035700
     43 H9         -2.8250    7.8220   15.7820 hc        1 PJZ      0.035700
     44 H10        -1.7200    9.8670   13.7300 hc        1 PJZ      0.048200
     45 H11        -1.0760    8.2010   14.0030 hc        1 PJZ      0.048200
     46 H12        -4.0400    8.6930   13.2190 ha        1 PJZ      0.122000
     47 H13        -1.6880    7.0950   11.9510 ha        1 PJZ      0.124000
     48 H14        -4.7300    7.3950   11.2840 ha        1 PJZ      0.120000
     49 H15        -4.3550    5.8750    9.4740 ha        1 PJZ      0.122000
     50 H16        -1.4170    5.6730   10.5090 ha        1 PJZ      0.123000
     51 H17        -3.8870    5.0240    7.6760 ha        1 PJZ      0.123000
     52 H18        -0.9790    4.3400    8.5790 ha        1 PJZ      0.123000
     53 H19        -0.7460    2.8810    7.1650 ha        1 PJZ      0.128000
     54 H20        -3.5380    3.4750    5.8840 ha        1 PJZ      0.121000
     55 H21        -2.2390    1.8370    4.6400 ha        1 PJZ      0.122000
     56 H22         0.6100    1.4090    5.8260 hc        1 PJZ      0.065700
     57 H23        -0.5060    0.0300    5.4860 hc        1 PJZ      0.065700
     58 H24         0.3840    2.1450    3.3880 hc        1 PJZ      0.081700
     59 H25        -0.6270    0.6740    3.0710 hc        1 PJZ      0.081700
     60 H26         4.1730    8.9610  -11.8420 hc        1 PJZ      0.032700
     61 H27         5.8360    8.3090  -12.1310 hc        1 PJZ      0.032700
     62 H28         4.5640    8.1410  -13.4100 hc        1 PJZ      0.032700
     63 H29         3.2430    6.6230  -11.9350 hc        1 PJZ      0.038700
     64 H30         5.6590    6.9260  -10.0200 hc        1 PJZ      0.039700
     65 H31         3.0620    5.2420   -9.8610 hc        1 PJZ      0.039700
     66 H32         5.4790    5.5440   -7.9460 hc        1 PJZ      0.039700
     67 H33         4.5410    3.2100   -8.0760 hc        1 PJZ      0.040200
     68 H34         3.6420    4.8130   -5.5810 hc        1 PJZ      0.039700
     69 H35         4.3630    1.8280   -6.0030 hc        1 PJZ      0.042700
     70 H36         5.1230    2.7840   -3.7990 hc        1 PJZ      0.041200
     71 H37         2.5350    1.0820   -3.6520 hc        1 PJZ      0.057700
     72 H38         4.2020    0.4420   -3.9200 hc        1 PJZ      0.057700
     73 H39         3.2000    1.9900   -1.4200 hc        1 PJZ      0.078700
     74 H40         4.9180    1.4790   -1.6990 hc        1 PJZ      0.078700
     75 H41         4.9020    5.9720  -12.2230 hc        1 PJZ      0.038700
     76 H42         4.0000    7.5770   -9.7320 hc        1 PJZ      0.039700
     77 H43         4.7210    4.5920  -10.1510 hc        1 PJZ      0.039700
     78 H44         3.8210    6.1950   -7.6560 hc        1 PJZ      0.039700
     79 H45         2.8820    3.8610   -7.7860 hc        1 PJZ      0.040200
     80 H46         5.3010    4.1630   -5.8720 hc        1 PJZ      0.039700
     81 H47         2.7040    2.4780   -5.7120 hc        1 PJZ      0.042700
     82 H48         3.4610    3.4280   -3.5060 hc        1 PJZ      0.041200
@<TRIPOS>BOND
     1    1    2 1   
     2    1   35 1   
     3    1   36 1   
     4    1   37 1   
     5    2    3 1   
     6    2    4 1   
     7    2   38 1   
     8    3   33 1   
     9    4    5 1   
    10    4   39 1   
    11    4   40 1   
    12    5   20 1   
    13    6    7 1   
    14    6   41 1   
    15    6   42 1   
    16    6   43 1   
    17    7    8 1   
    18    7   44 1   
    19    7   45 1   
    20    8    9 2   
    21    8   46 1   
    22    9   10 1   
    23    9   47 1   
    24   10   11 2   
    25   10   48 1   
    26   11   12 1   
    27   11   49 1   
    28   12   13 2   
    29   12   50 1   
    30   13   14 1   
    31   13   52 1   
    32   14   15 2   
    33   14   51 1   
    34   15   16 1   
    35   15   54 1   
    36   16   17 2   
    37   16   53 1   
    38   17   18 1   
    39   17   55 1   
    40   18   19 1   
    41   18   56 1   
    42   18   57 1   
    43   19   20 1   
    44   19   58 1   
    45   19   59 1   
    46   20   21 2   
    47   22   23 1   
    48   22   60 1   
    49   22   61 1   
    50   22   62 1   
    51   23   24 1   
    52   23   63 1   
    53   23   75 1   
    54   24   25 1   
    55   24   64 1   
    56   24   76 1   
    57   25   26 1   
    58   25   65 1   
    59   25   77 1   
    60   26   27 1   
    61   26   66 1   
    62   26   78 1   
    63   27   28 1   
    64   27   67 1   
    65   27   79 1   
    66   28   29 1   
    67   28   68 1   
    68   28   80 1   
    69   29   30 1   
    70   29   69 1   
    71   29   81 1   
    72   30   31 1   
    73   30   70 1   
    74   30   82 1   
    75   31   32 1   
    76   31   71 1   
    77   31   72 1   
    78   32   33 1   
    79   32   73 1   
    80   32   74 1   
    81   33   34 2   
@<TRIPOS>SUBSTRUCTURE
     1 PJZ         1 TEMP              0 ****  ****    0 ROOT
