@<TRIPOS>MOLECULE
molecule
   82    81     1     0     0
SMALL
bcc


@<TRIPOS>ATOM
      1 C1           0.0000     0.0000     0.0000 c3         1 PJZ      -0.110100
      2 C2           1.5300     0.0000     0.0000 c3         1 PJZ       0.147100
      3 O2           2.0140     1.1850    -0.6850 os         1 PJZ      -0.420900
      4 C3           2.0390     0.0000     1.4420 c3         1 PJZ       0.150400
      5 O3           1.4620     1.1210     2.1600 os         1 PJZ      -0.421900
      6 C12         -6.1670     7.4960    16.4270 c3         1 PJZ      -0.088100
      7 C13         -4.6760     7.7330    16.1760 c3         1 PJZ      -0.052200
      8 C14         -4.1150     6.5910    15.3670 c2         1 PJZ      -0.156200
      9 C15         -3.4770     6.8370    14.2200 ce         1 PJZ      -0.150000
     10 C16         -2.9340     5.7300    13.4350 cf         1 PJZ      -0.121000
     11 C17         -2.2850     5.9800    12.2700 ce         1 PJZ      -0.140000
     12 C18         -1.7620     4.9120    11.5130 ce         1 PJZ      -0.124000
     13 C19         -1.1120     5.1620    10.3450 cf         1 PJZ      -0.135000
     14 C20         -0.5870     4.0940     9.5890 cf         1 PJZ      -0.128000
     15 C21          0.0620     4.3440     8.4240 ce         1 PJZ      -0.133000
     16 C22          0.6050     3.2370     7.6390 ce         1 PJZ      -0.134000
     17 C23          1.2430     3.4820     6.4920 c2         1 PJZ      -0.173200
     18 C24          1.8040     2.3410     5.6820 c3         1 PJZ      -0.037200
     19 C25          1.2510     2.4060     4.2570 c3         1 PJZ      -0.122400
     20 C26          1.8110     1.2660     3.4480 c          1 PJZ       0.630100
     21 O28          2.5740     0.4810     3.9590 o          1 PJZ      -0.554000
     22 C35          5.9840     6.4110   -14.1130 c3         1 PJZ      -0.092100
     23 C36          5.4750     5.2040   -13.3220 c3         1 PJZ      -0.084400
     24 C37          5.3320     5.5840   -11.8480 c3         1 PJZ      -0.081400
     25 C38          4.8220     4.3760   -11.0570 c3         1 PJZ      -0.082400
     26 C39          4.6780     4.7560    -9.5820 c3         1 PJZ      -0.081400
     27 C40          4.1690     3.5490    -8.7920 c3         1 PJZ      -0.081400
     28 C41          4.0250     3.9290    -7.3160 c3         1 PJZ      -0.082400
     29 C42          3.5150     2.7210    -6.5270 c3         1 PJZ      -0.080400
     30 C43          3.3710     3.1010    -5.0520 c3         1 PJZ      -0.084400
     31 C44          2.8620     1.8940    -4.2620 c3         1 PJZ      -0.072400
     32 C45          2.7180     2.2730    -2.7870 c3         1 PJZ      -0.126400
     33 C46          2.2160     1.0850    -2.0090 c          1 PJZ       0.630100
     34 O47          1.9960     0.0410    -2.5750 o          1 PJZ      -0.553000
     35 H1          -0.3610    -0.5580    -0.8550 hc         1 PJZ       0.051367
     36 H2          -0.3610     1.0200    -0.0560 hc         1 PJZ       0.051367
     37 H3          -0.3610    -0.4610     0.9110 hc         1 PJZ       0.051367
     38 H4           1.8900    -0.8850    -0.5100 h1         1 PJZ       0.083700
     39 H5           3.1190     0.0880     1.4430 h1         1 PJZ       0.061700
     40 H6           1.7520    -0.9250     1.9260 h1         1 PJZ       0.061700
     41 H7          -6.2940     6.6170    17.0480 hc         1 PJZ       0.035033
     42 H8          -6.5900     8.3570    16.9300 hc         1 PJZ       0.035033
     43 H9          -6.6730     7.3460    15.4810 hc         1 PJZ       0.035033
     44 H10         -4.5440     8.6600    15.6320 hc         1 PJZ       0.047200
     45 H11         -4.1550     7.7940    17.1240 hc         1 PJZ       0.047200
     46 H12         -4.2300     5.5720    15.7160 ha         1 PJZ       0.127000
     47 H13         -3.3630     7.8560    13.8710 ha         1 PJZ       0.129000
     48 H14         -3.0500     4.7110    13.7830 ha         1 PJZ       0.128000
     49 H15         -2.1690     6.9990    11.9220 ha         1 PJZ       0.129000
     50 H16         -1.8770     3.8930    11.8610 ha         1 PJZ       0.128000
     51 H17         -0.9960     6.1810     9.9960 ha         1 PJZ       0.128000
     52 H18         -0.7030     3.0750     9.9370 ha         1 PJZ       0.129000
     53 H19          0.1770     5.3630     8.0750 ha         1 PJZ       0.129000
     54 H20          0.4900     2.2180     7.9880 ha         1 PJZ       0.130000
     55 H21          1.3580     4.5020     6.1430 ha         1 PJZ       0.127000
     56 H22          1.5180     1.4000     6.1370 hc         1 PJZ       0.064700
     57 H23          2.8840     2.4150     5.6540 hc         1 PJZ       0.064700
     58 H24          1.5360     3.3470     3.8020 hc         1 PJZ       0.075200
     59 H25          0.1700     2.3320     4.2860 hc         1 PJZ       0.075200
     60 H26          6.9500     6.7150   -13.7260 hc         1 PJZ       0.032367
     61 H27          6.0820     6.1430   -15.1580 hc         1 PJZ       0.032367
     62 H28          5.2820     7.2290   -14.0140 hc         1 PJZ       0.032367
     63 H29          6.1800     4.3860   -13.4170 hc         1 PJZ       0.039700
     64 H30          4.6270     6.4010   -11.7520 hc         1 PJZ       0.040700
     65 H31          3.8580     4.0700   -11.4470 hc         1 PJZ       0.041200
     66 H32          5.6410     5.0620    -9.1920 hc         1 PJZ       0.040700
     67 H33          4.8730     2.7320    -8.8870 hc         1 PJZ       0.041700
     68 H34          4.9880     4.2350    -6.9270 hc         1 PJZ       0.040700
     69 H35          4.2200     1.9040    -6.6220 hc         1 PJZ       0.044700
     70 H36          4.3340     3.4070    -4.6620 hc         1 PJZ       0.040700
     71 H37          1.8980     1.5880    -4.6520 hc         1 PJZ       0.058700
     72 H38          3.5660     1.0760    -4.3580 hc         1 PJZ       0.058700
     73 H39          2.0130     3.0910    -2.6910 hc         1 PJZ       0.072200
     74 H40          3.6810     2.5790    -2.3970 hc         1 PJZ       0.072200
     75 H41          4.5120     4.8970   -13.7110 hc         1 PJZ       0.039700
     76 H42          6.2950     5.8900   -11.4580 hc         1 PJZ       0.040700
     77 H43          5.5260     3.5590   -11.1530 hc         1 PJZ       0.041200
     78 H44          3.9730     5.5730    -9.4860 hc         1 PJZ       0.040700
     79 H45          3.2060     3.2430    -9.1810 hc         1 PJZ       0.041700
     80 H46          3.3210     4.7460    -7.2210 hc         1 PJZ       0.040700
     81 H47          2.5520     2.4150    -6.9170 hc         1 PJZ       0.044700
     82 H48          2.6670     3.9190    -4.9560 hc         1 PJZ       0.040700
@<TRIPOS>BOND
     1    21    20 2
     2    20     5 1
     3    20    19 1
     4    18    19 1
     5    18    17 1
     6     5     4 1
     7    17    16 2
     8     4     2 1
     9    16    15 1
    10     1     2 1
    11     2     3 1
    12    15    14 2
    13    14    13 1
    14     3    33 1
    15    34    33 2
    16    33    32 1
    17    13    12 2
    18    32    31 1
    19    12    11 1
    20    31    30 1
    21    11    10 2
    22    10     9 1
    23    30    29 1
    24    29    28 1
    25     9     8 2
    26     8     7 1
    27    28    27 1
    28     6     7 1
    29    27    26 1
    30    26    25 1
    31    25    24 1
    32    24    23 1
    33    23    22 1
    34     1    35 1
    35     1    36 1
    36     1    37 1
    37     2    38 1
    38     4    39 1
    39     4    40 1
    40     6    41 1
    41     6    42 1
    42     6    43 1
    43     7    44 1
    44     7    45 1
    45     8    46 1
    46     9    47 1
    47    10    48 1
    48    11    49 1
    49    12    50 1
    50    13    51 1
    51    14    52 1
    52    15    53 1
    53    16    54 1
    54    17    55 1
    55    18    56 1
    56    18    57 1
    57    19    58 1
    58    19    59 1
    59    22    60 1
    60    22    61 1
    61    22    62 1
    62    23    63 1
    63    24    64 1
    64    25    65 1
    65    26    66 1
    66    27    67 1
    67    28    68 1
    68    29    69 1
    69    30    70 1
    70    31    71 1
    71    31    72 1
    72    32    73 1
    73    32    74 1
    74    23    75 1
    75    24    76 1
    76    25    77 1
    77    26    78 1
    78    27    79 1
    79    28    80 1
    80    29    81 1
    81    30    82 1
@<TRIPOS>SUBSTRUCTURE
     1 PJZ         1 TEMP              0 ****  ****    0 ROOT
