@<TRIPOS>MOLECULE
PK0
   42    44     1     0     0
SMALL
bcc


@<TRIPOS>ATOM
      1 N4           0.0000     0.0000     0.0000 n          1 PK0      -0.159800
      2 C31         -1.2360    -1.2540     1.7310 c3         1 PK0       0.000900
      3 C4          -0.8750     0.0060    -1.1740 c3         1 PK0       0.125300
      4 O2           1.0360    -0.0060     3.3780 o          1 PK0      -0.590500
      5 C2           0.8890    -0.0050     2.1750 c          1 PK0       0.622500
      6 O5           2.0210    -0.0000    -1.0100 o          1 PK0      -0.691500
      7 C5           1.3460     0.0000     0.0000 c          1 PK0       0.617500
      8 C3          -0.4210     0.0010     1.4120 c3         1 PK0      -0.027300
      9 C1B         -1.2160     1.2410     1.7280 ca         1 PK0      -0.133300
     10 C2B         -2.1140     1.2370     2.7800 ca         1 PK0      -0.066000
     11 C3B         -2.8450     2.3720     3.0700 ca         1 PK0      -0.133000
     12 C4B         -2.6760     3.5190     2.3070 ca         1 PK0       0.140100
     13 C5B         -1.7750     3.5210     1.2530 ca         1 PK0      -0.133000
     14 C6B         -1.0430     2.3840     0.9690 ca         1 PK0      -0.066000
     15 O4          -3.3950     4.6370     2.5910 oh         1 PK0      -0.500100
     16 N1           1.8570     0.0000     1.2370 n          1 PK0       0.035400
     17 C1A          3.2260     0.0000     1.5200 ca         1 PK0      -0.081400
     18 C2A          4.1490     0.1360     0.4880 ca         1 PK0      -0.109000
     19 C3A          5.4970     0.1380     0.7630 ca         1 PK0      -0.061000
     20 C4A          5.9400     0.0020     2.0820 ca         1 PK0       0.084000
     21 C5A          5.0100    -0.1350     3.1170 ca         1 PK0      -0.168300
     22 C6A          3.6620    -0.1290     2.8340 ca         1 PK0      -0.092000
     23 C41          7.3420     0.0030     2.3730 cg         1 PK0       0.203800
     24 N41          8.4510    -0.0130     2.6150 n1         1 PK0      -0.340800
     25 C51          5.4820    -0.2800     4.5410 c3         1 PK0       0.642200
     26 F1           6.2270     0.8470     4.9030 f          1 PK0      -0.202633
     27 F2           4.3750    -0.4010     5.3880 f          1 PK0      -0.202633
     28 F3           6.2810    -1.4240     4.6520 f          1 PK0      -0.202633
     29 H1          -2.2360    -1.1480     1.3290 hc         1 PK0       0.024700
     30 H2          -0.7580    -2.1180     1.2850 hc         1 PK0       0.024700
     31 H3          -1.2900    -1.3860     2.8050 hc         1 PK0       0.024700
     32 H4          -1.8410    -0.4070    -0.9070 h1         1 PK0       0.018033
     33 H5          -0.4310    -0.5940    -1.9590 h1         1 PK0       0.018033
     34 H6          -1.0020     1.0230    -1.5250 h1         1 PK0       0.018033
     35 H7          -2.2450     0.3420     3.3760 ha         1 PK0       0.115500
     36 H8          -3.5480     2.3680     3.8950 ha         1 PK0       0.119500
     37 H9          -1.6420     4.4150     0.6560 ha         1 PK0       0.119500
     38 H10         -0.3360     2.3880     0.1490 ha         1 PK0       0.115500
     39 H11         -2.9050     5.1830     3.1840 ho         1 PK0       0.408000
     40 H12          3.8060     0.2420    -0.5340 ha         1 PK0       0.180000
     41 H13          6.2140     0.2440    -0.0420 ha         1 PK0       0.123000
     42 H14          2.9410    -0.2300     3.6360 ha         1 PK0       0.178000
@<TRIPOS>BOND
     1     1     3 1   
     2     1     7 1   
     3     1     8 1   
     4     2     8 1   
     5     2    29 1   
     6     2    30 1   
     7     2    31 1   
     8     3    32 1   
     9     3    33 1   
    10     3    34 1   
    11     4     5 2   
    12     5     8 1   
    13     5    16 1   
    14     6     7 2   
    15     7    16 1   
    16     8     9 1   
    17     9    10 ar  
    18     9    14 ar  
    19    10    11 ar  
    20    10    35 1   
    21    11    12 ar  
    22    11    36 1   
    23    12    13 ar  
    24    12    15 1   
    25    13    14 ar  
    26    13    37 1   
    27    14    38 1   
    28    15    39 1   
    29    16    17 1   
    30    17    18 ar  
    31    17    22 ar  
    32    18    19 ar  
    33    18    40 1   
    34    19    20 ar  
    35    19    41 1   
    36    20    21 ar  
    37    20    23 1   
    38    21    22 ar  
    39    21    25 1   
    40    22    42 1   
    41    23    24 3   
    42    25    26 1   
    43    25    27 1   
    44    25    28 1   
@<TRIPOS>SUBSTRUCTURE
     1 PK0         1 TEMP              0 ****  ****    0 ROOT
