@<TRIPOS>MOLECULE
molecule
   42    44     1     0     0
SMALL
bcc


@<TRIPOS>ATOM
      1 N4           0.0000     0.0000     0.0000 n          1 PK0      -0.496800
      2 C31         -1.2360    -1.2540     1.7310 c3         1 PK0      -0.091100
      3 C4          -0.8750     0.0060    -1.1740 c3         1 PK0       0.138300
      4 O2           1.0360    -0.0060     3.3780 o          1 PK0      -0.555500
      5 C2           0.8890    -0.0050     2.1750 c          1 PK0       0.713500
      6 O5           2.0210    -0.0000    -1.0100 o          1 PK0      -0.644500
      7 C5           1.3460     0.0000     0.0000 c          1 PK0       0.816500
      8 C3          -0.4210     0.0010     1.4120 c3         1 PK0       0.073700
      9 C1B         -1.2160     1.2410     1.7280 ca         1 PK0      -0.118300
     10 C2B         -2.1140     1.2370     2.7800 ca         1 PK0      -0.092500
     11 C3B         -2.8450     2.3720     3.0700 ca         1 PK0      -0.152500
     12 C4B         -2.6760     3.5190     2.3070 ca         1 PK0       0.122100
     13 C5B         -1.7750     3.5210     1.2530 ca         1 PK0      -0.152500
     14 C6B         -1.0430     2.3840     0.9690 ca         1 PK0      -0.092500
     15 O4          -3.3950     4.6370     2.5910 oh         1 PK0      -0.521100
     16 N1           1.8570     0.0000     1.2370 n          1 PK0      -0.384600
     17 C1A          3.2260     0.0000     1.5200 ca         1 PK0       0.066600
     18 C2A          4.1490     0.1360     0.4880 ca         1 PK0      -0.129000
     19 C3A          5.4970     0.1380     0.7630 ca         1 PK0      -0.082000
     20 C4A          5.9400     0.0020     2.0820 ca         1 PK0       0.018000
     21 C5A          5.0100    -0.1350     3.1170 ca         1 PK0      -0.134300
     22 C6A          3.6620    -0.1290     2.8340 ca         1 PK0      -0.117000
     23 C41          7.3420     0.0030     2.3730 cg         1 PK0       0.223800
     24 N41          8.4510    -0.0130     2.6150 n1         1 PK0      -0.330800
     25 C51          5.4820    -0.2800     4.5410 c3         1 PK0       0.675200
     26 F1           6.2270     0.8470     4.9030 f          1 PK0      -0.215967
     27 F2           4.3750    -0.4010     5.3880 f          1 PK0      -0.215967
     28 F3           6.2810    -1.4240     4.6520 f          1 PK0      -0.215967
     29 H1          -2.2360    -1.1480     1.3290 hc         1 PK0       0.059033
     30 H2          -0.7580    -2.1180     1.2850 hc         1 PK0       0.059033
     31 H3          -1.2900    -1.3860     2.8050 hc         1 PK0       0.059033
     32 H4          -1.8410    -0.4070    -0.9070 h1         1 PK0       0.052367
     33 H5          -0.4310    -0.5940    -1.9590 h1         1 PK0       0.052367
     34 H6          -1.0020     1.0230    -1.5250 h1         1 PK0       0.052367
     35 H7          -2.2450     0.3420     3.3760 ha         1 PK0       0.143000
     36 H8          -3.5480     2.3680     3.8950 ha         1 PK0       0.147500
     37 H9          -1.6420     4.4150     0.6560 ha         1 PK0       0.147500
     38 H10         -0.3360     2.3880     0.1490 ha         1 PK0       0.143000
     39 H11         -2.9050     5.1830     3.1840 ho         1 PK0       0.425000
     40 H12          3.8060     0.2420    -0.5340 ha         1 PK0       0.199000
     41 H13          6.2140     0.2440    -0.0420 ha         1 PK0       0.156000
     42 H14          2.9410    -0.2300     3.6360 ha         1 PK0       0.197000
@<TRIPOS>BOND
     1     6     7 2
     2     3     1 1
     3     7     1 1
     4     7    16 1
     5    26    25 1
     6     1     8 1
     7    24    23 3
     8    23    20 1
     9    19    18 ar
    10    19    20 ar
    11    18    17 ar
    12    20    21 ar
    13    28    25 1
    14    17    16 1
    15    17    22 ar
    16    16     5 1
    17     2     8 1
    18    21    22 ar
    19    21    25 1
    20    25    27 1
    21     8     5 1
    22     8     9 1
    23     5     4 2
    24     9    14 ar
    25     9    10 ar
    26    14    13 ar
    27    10    11 ar
    28    13    12 ar
    29    11    12 ar
    30    12    15 1
    31     2    29 1
    32     2    30 1
    33     2    31 1
    34     3    32 1
    35     3    33 1
    36     3    34 1
    37    10    35 1
    38    11    36 1
    39    13    37 1
    40    14    38 1
    41    15    39 1
    42    18    40 1
    43    19    41 1
    44    22    42 1
@<TRIPOS>SUBSTRUCTURE
     1 PK0         1 TEMP              0 ****  ****    0 ROOT
