@<TRIPOS>MOLECULE
PK1
   38    40     1     0     0
SMALL
bcc


@<TRIPOS>ATOM
      1 N4           0.0000     0.0000     0.0000 n          1 PK1      -0.008800
      2 C31         -1.2360    -1.2560     1.7290 c3         1 PK1       0.003900
      3 C4          -0.8750     0.0050    -1.1750 c3         1 PK1       0.093300
      4 O2           1.0330    -0.0080     3.3780 o          1 PK1      -0.572500
      5 C2           0.8880    -0.0060     2.1750 c          1 PK1       0.601500
      6 S5           2.2970     0.0010    -1.4220 s          1 PK1      -0.649400
      7 C5           1.3450     0.0000     0.0000 cs         1 PK1       0.277400
      8 C3          -0.4220    -0.0000     1.4110 c3         1 PK1      -0.059300
      9 C1B         -1.2180     1.2390     1.7270 ca         1 PK1      -0.134300
     10 C2B         -2.0610     1.2590     2.8230 ca         1 PK1      -0.067000
     11 C3B         -2.7920     2.3930     3.1140 ca         1 PK1      -0.132000
     12 C4B         -2.6800     3.5160     2.3050 ca         1 PK1       0.141100
     13 C5B         -1.8340     3.4950     1.2070 ca         1 PK1      -0.132000
     14 C6B         -1.1010     2.3580     0.9220 ca         1 PK1      -0.067000
     15 O4          -3.3980     4.6330     2.5900 oh         1 PK1      -0.497100
     16 N1           1.8550     0.0000     1.2370 n          1 PK1       0.112400
     17 C1A          3.2280     0.0010     1.5220 ca         1 PK1      -0.107400
     18 C2A          3.8160     1.1150     2.1080 ca         1 PK1      -0.054000
     19 C3A          5.1680     1.1140     2.3880 ca         1 PK1      -0.086000
     20 C4A          5.9380     0.0040     2.0870 ca         1 PK1      -0.020600
     21 C5A          5.3550    -1.1080     1.5030 ca         1 PK1      -0.038600
     22 C6A          4.0010    -1.1130     1.2250 ca         1 PK1      -0.040000
     23 Cl1          6.3230    -2.4980     1.1250 cl         1 PK1       0.009600
     24 Cl2          7.6370     0.0070     2.4410 cl         1 PK1       0.005600
     25 H1          -2.2590    -1.1160     1.4010 hc         1 PK1       0.026033
     26 H2          -0.8050    -2.1060     1.2140 hc         1 PK1       0.026033
     27 H3          -1.2210    -1.4350     2.7970 hc         1 PK1       0.026033
     28 H4          -1.9030     0.1290    -0.8600 h1         1 PK1       0.031700
     29 H5          -0.5970     0.8240    -1.8290 h1         1 PK1       0.031700
     30 H6          -0.7700    -0.9330    -1.7070 h1         1 PK1       0.031700
     31 H7          -2.1480     0.3830     3.4540 ha         1 PK1       0.118000
     32 H8          -3.4520     2.4080     3.9730 ha         1 PK1       0.120500
     33 H9          -1.7440     4.3700     0.5750 ha         1 PK1       0.120500
     34 H10         -0.4400     2.3410     0.0640 ha         1 PK1       0.118000
     35 H11         -4.2300     4.5930     2.1480 ho         1 PK1       0.406000
     36 H12          3.2140     1.9840     2.3440 ha         1 PK1       0.116000
     37 H13          5.6260     1.9820     2.8450 ha         1 PK1       0.122000
     38 H14          3.5450    -1.9830     0.7680 ha         1 PK1       0.130000
@<TRIPOS>BOND
     1     1     3 1   
     2     1     7 1   
     3     1     8 1   
     4     2     8 1   
     5     2    25 1   
     6     2    26 1   
     7     2    27 1   
     8     3    28 1   
     9     3    29 1   
    10     3    30 1   
    11     4     5 2   
    12     5     8 1   
    13     5    16 1   
    14     6     7 2   
    15     7    16 1   
    16     8     9 1   
    17     9    10 ar  
    18     9    14 ar  
    19    10    11 ar  
    20    10    31 1   
    21    11    12 ar  
    22    11    32 1   
    23    12    13 ar  
    24    12    15 1   
    25    13    14 ar  
    26    13    33 1   
    27    14    34 1   
    28    15    35 1   
    29    16    17 1   
    30    17    18 ar  
    31    17    22 ar  
    32    18    19 ar  
    33    18    36 1   
    34    19    20 ar  
    35    19    37 1   
    36    20    21 ar  
    37    20    24 1   
    38    21    22 ar  
    39    21    23 1   
    40    22    38 1   
@<TRIPOS>SUBSTRUCTURE
     1 PK1         1 TEMP              0 ****  ****    0 ROOT
