@<TRIPOS>MOLECULE
molecule
   38    40     1     0     0
SMALL
bcc


@<TRIPOS>ATOM
      1 N4           0.0000     0.0000     0.0000 n          1 PK1      -0.415800
      2 C31         -1.2360    -1.2560     1.7290 c3         1 PK1      -0.089100
      3 C4          -0.8750     0.0050    -1.1750 c3         1 PK1       0.127300
      4 O2           1.0330    -0.0080     3.3780 o          1 PK1      -0.539500
      5 C2           0.8880    -0.0060     2.1750 c          1 PK1       0.701500
      6 S5           2.2970     0.0010    -1.4220 s          1 PK1      -0.606400
      7 C5           1.3450     0.0000     0.0000 cs         1 PK1       0.579400
      8 C3          -0.4220    -0.0000     1.4110 c3         1 PK1       0.052700
      9 C1B         -1.2180     1.2390     1.7270 ca         1 PK1      -0.119300
     10 C2B         -2.0610     1.2590     2.8230 ca         1 PK1      -0.093500
     11 C3B         -2.7920     2.3930     3.1140 ca         1 PK1      -0.152000
     12 C4B         -2.6800     3.5160     2.3050 ca         1 PK1       0.122100
     13 C5B         -1.8340     3.4950     1.2070 ca         1 PK1      -0.152000
     14 C6B         -1.1010     2.3580     0.9220 ca         1 PK1      -0.093500
     15 O4          -3.3980     4.6330     2.5900 oh         1 PK1      -0.518100
     16 N1           1.8550     0.0000     1.2370 n          1 PK1      -0.344600
     17 C1A          3.2280     0.0010     1.5220 ca         1 PK1       0.047600
     18 C2A          3.8160     1.1150     2.1080 ca         1 PK1      -0.093000
     19 C3A          5.1680     1.1140     2.3880 ca         1 PK1      -0.110000
     20 C4A          5.9380     0.0040     2.0870 ca         1 PK1       0.043400
     21 C5A          5.3550    -1.1080     1.5030 ca         1 PK1       0.033400
     22 C6A          4.0010    -1.1130     1.2250 ca         1 PK1      -0.077000
     23 Cl1          6.3230    -2.4980     1.1250 cl         1 PK1      -0.074400
     24 Cl2          7.6370     0.0070     2.4410 cl         1 PK1      -0.078400
     25 H1          -2.2590    -1.1160     1.4010 hc         1 PK1       0.060033
     26 H2          -0.8050    -2.1060     1.2140 hc         1 PK1       0.060033
     27 H3          -1.2210    -1.4350     2.7970 hc         1 PK1       0.060033
     28 H4          -1.9030     0.1290    -0.8600 h1         1 PK1       0.062033
     29 H5          -0.5970     0.8240    -1.8290 h1         1 PK1       0.062033
     30 H6          -0.7700    -0.9330    -1.7070 h1         1 PK1       0.062033
     31 H7          -2.1480     0.3830     3.4540 ha         1 PK1       0.145000
     32 H8          -3.4520     2.4080     3.9730 ha         1 PK1       0.148500
     33 H9          -1.7440     4.3700     0.5750 ha         1 PK1       0.148500
     34 H10         -0.4400     2.3410     0.0640 ha         1 PK1       0.145000
     35 H11         -4.2300     4.5930     2.1480 ho         1 PK1       0.424000
     36 H12          3.2140     1.9840     2.3440 ha         1 PK1       0.152000
     37 H13          5.6260     1.9820     2.8450 ha         1 PK1       0.157000
     38 H14          3.5450    -1.9830     0.7680 ha         1 PK1       0.164000
@<TRIPOS>BOND
     1     6     7 2
     2     3     1 1
     3     7     1 1
     4     7    16 1
     5     1     8 1
     6    18    19 ar
     7    18    17 ar
     8    19    20 ar
     9     2     8 1
    10    20    24 1
    11    20    21 ar
    12    17    16 1
    13    17    22 ar
    14    16     5 1
    15    22    21 ar
    16    21    23 1
    17     8     5 1
    18     8     9 1
    19     5     4 2
    20     9    14 ar
    21     9    10 ar
    22    14    13 ar
    23    10    11 ar
    24    13    12 ar
    25    11    12 ar
    26    12    15 1
    27     2    25 1
    28     2    26 1
    29     2    27 1
    30     3    28 1
    31     3    29 1
    32     3    30 1
    33    10    31 1
    34    11    32 1
    35    13    33 1
    36    14    34 1
    37    15    35 1
    38    18    36 1
    39    19    37 1
    40    22    38 1
@<TRIPOS>SUBSTRUCTURE
     1 PK1         1 TEMP              0 ****  ****    0 ROOT
