@<TRIPOS>MOLECULE
molecule
   55    58     1     0     0
SMALL
bcc


@<TRIPOS>ATOM
      1 C2           0.0000     0.0000     0.0000 c          1 PK2       0.726100
      2 O14         -0.6310     0.0000    -1.0410 o          1 PK2      -0.566500
      3 N3           1.3530     0.0000     0.0000 ns         1 PK2      -0.486400
      4 C4           2.0480     0.0000     1.1750 cc         1 PK2       0.431800
      5 N15          3.4210    -0.0010     1.1230 nz         1 PK2      -0.728600
      6 N5           1.4690     0.0000     2.3490 nd         1 PK2      -0.527100
      7 C6           0.1180    -0.0000     2.4730 ca         1 PK2       0.117400
      8 C10         -0.4910    -0.0000     3.7220 ca         1 PK2       0.029700
      9 C18          0.3480    -0.0000     4.9740 c3         1 PK2      -0.037100
     10 C19          0.6320     1.4430     5.3970 c3         1 PK2       0.164800
     11 N20          1.4500     1.4430     6.6170 n7         1 PK2      -0.826200
     12 C21          1.7440     2.8140     7.0540 c3         1 PK2       0.159800
     13 C22          2.5950     2.7730     8.3240 c3         1 PK2      -0.069700
     14 C27          2.7960     4.1960     8.8500 c3         1 PK2      -0.072400
     15 C26          3.6480     4.1550    10.1200 c3         1 PK2      -0.079900
     16 C25          5.0090     3.5330     9.8020 c3         1 PK2      -0.080400
     17 C24          4.8080     2.1090     9.2760 c3         1 PK2      -0.079900
     18 C23          3.9560     2.1510     8.0060 c3         1 PK2      -0.072400
     19 C9          -1.8830     0.0000     3.8120 ca         1 PK2       0.162400
     20 N11         -2.7400     0.0000     4.8640 nc         1 PK2      -0.669100
     21 C12         -3.9770     0.0000     4.4290 cd         1 PK2       0.714700
     22 N16         -5.0960     0.0010     5.2300 nu         1 PK2      -0.858200
     23 C17         -6.4300     0.0020     4.6250 c3         1 PK2       0.214100
     24 N13         -3.9910     0.0010     3.0640 na         1 PK2      -0.285300
     25 C8          -2.6680     0.0000     2.6400 ca         1 PK2      -0.079200
     26 C7          -2.0710     0.0010     1.3960 ca         1 PK2      -0.036000
     27 C1          -0.6810     0.0060     1.3020 ca         1 PK2      -0.179600
     28 HN3          1.8490    -0.0000    -0.8690 hn         1 PK2       0.338500
     29 HN15         3.7260    -0.6060     0.3870 hn         1 PK2       0.473133
     30 HN1A         3.7880    -0.3250     1.9950 hn         1 PK2       0.473133
     31 H18          1.2840    -0.5110     4.7810 hc         1 PK2       0.073200
     32 H18A        -0.1850    -0.5110     5.7660 hc         1 PK2       0.073200
     33 H19         -0.3040     1.9530     5.5900 h1         1 PK2       0.035200
     34 H19A         1.1660     1.9530     4.6050 h1         1 PK2       0.035200
     35 HN20         0.9640     0.9570     7.3450 hn         1 PK2       0.360800
     36 H21          2.2850     3.3340     6.2730 h1         1 PK2       0.032700
     37 H21A         0.8160     3.3350     7.2580 h1         1 PK2       0.032700
     38 H22          2.0960     2.1780     9.0800 hc         1 PK2       0.054700
     39 H27          1.8320     4.6350     9.0770 hc         1 PK2       0.041700
     40 H27A         3.3010     4.7900     8.0970 hc         1 PK2       0.041700
     41 H26          3.7910     5.1630    10.4900 hc         1 PK2       0.043700
     42 H26A         3.1450     3.5570    10.8710 hc         1 PK2       0.043700
     43 H25          5.6100     3.5020    10.7030 hc         1 PK2       0.043200
     44 H25A         5.5090     4.1270     9.0470 hc         1 PK2       0.043200
     45 H24          4.3030     1.5150    10.0290 hc         1 PK2       0.043700
     46 H24A         5.7720     1.6700     9.0490 hc         1 PK2       0.043700
     47 H23          3.8130     1.1430     7.6360 hc         1 PK2       0.041700
     48 H23A         4.4590     2.7490     7.2560 hc         1 PK2       0.041700
     49 HN16        -4.9980     0.0150     6.2260 hn         1 PK2       0.485800
     50 H17         -7.1810     0.0020     5.4070 h1         1 PK2       0.050700
     51 H17A        -6.5490    -0.8820     4.0110 h1         1 PK2       0.050700
     52 H17B        -6.5480     0.8870     4.0120 h1         1 PK2       0.050700
     53 HN13        -4.8030     0.0010     2.4790 hn         1 PK2       0.320700
     54 H7          -2.6750     0.1270     0.5050 ha         1 PK2       0.168000
     55 H153         3.7480     0.9290     0.9460 hn         1 PK2       0.473133
@<TRIPOS>BOND
     1     1     2 2
     2     1     3 1
     3     1    27 1
     4     3     4 1
     5     4     5 1
     6     4     6 2
     7     6     7 1
     8     7     8 ar
     9     7    27 ar
    10     8     9 1
    11     8    19 ar
    12     9    10 1
    13    10    11 1
    14    11    12 1
    15    12    13 1
    16    13    14 1
    17    13    18 1
    18    14    15 1
    19    15    16 1
    20    16    17 1
    21    17    18 1
    22    19    20 1
    23    19    25 ar
    24    20    21 2
    25    21    22 1
    26    21    24 1
    27    22    23 1
    28    24    25 1
    29    25    26 ar
    30    26    27 ar
    31     3    28 1
    32     5    29 1
    33     5    30 1
    34     9    31 1
    35     9    32 1
    36    10    33 1
    37    10    34 1
    38    11    35 1
    39    12    36 1
    40    12    37 1
    41    13    38 1
    42    14    39 1
    43    14    40 1
    44    15    41 1
    45    15    42 1
    46    16    43 1
    47    16    44 1
    48    17    45 1
    49    17    46 1
    50    18    47 1
    51    18    48 1
    52    22    49 1
    53    23    50 1
    54    23    51 1
    55    23    52 1
    56    24    53 1
    57    26    54 1
    58    55     5 1
@<TRIPOS>SUBSTRUCTURE
     1 PK2         1 TEMP              0 ****  ****    0 ROOT
