@<TRIPOS>MOLECULE
PK2
   55    58     1     0     0
SMALL
bcc


@<TRIPOS>ATOM
      1 C2           0.0000     0.0000     0.0000 c          1 PK2       0.636100
      2 O14         -0.6310     0.0000    -1.0410 o          1 PK2      -0.606500
      3 N3           1.3530     0.0000     0.0000 ns         1 PK2      -0.028400
      4 C4           2.0480     0.0000     1.1750 cc         1 PK2      -0.036200
      5 N15          3.4210    -0.0010     1.1230 nz         1 PK2       0.221400
      6 N5           1.4690     0.0000     2.3490 nd         1 PK2      -0.337100
      7 C6           0.1180    -0.0000     2.4730 ca         1 PK2       0.036400
      8 C10         -0.4910    -0.0000     3.7220 ca         1 PK2       0.051700
      9 C18          0.3480    -0.0000     4.9740 c3         1 PK2       0.015900
     10 C19          0.6320     1.4430     5.3970 c3         1 PK2       0.152800
     11 N20          1.4500     1.4430     6.6170 n7         1 PK2      -0.593200
     12 C21          1.7440     2.8140     7.0540 c3         1 PK2       0.145800
     13 C22          2.5950     2.7730     8.3240 c3         1 PK2      -0.050700
     14 C27          2.7960     4.1960     8.8500 c3         1 PK2      -0.021400
     15 C26          3.6480     4.1550    10.1200 c3         1 PK2      -0.023400
     16 C25          5.0090     3.5330     9.8020 c3         1 PK2      -0.025400
     17 C24          4.8080     2.1090     9.2760 c3         1 PK2      -0.023400
     18 C23          3.9560     2.1510     8.0060 c3         1 PK2      -0.021400
     19 C9          -1.8830     0.0000     3.8120 ca         1 PK2       0.126400
     20 N11         -2.7400     0.0000     4.8640 nc         1 PK2      -0.599100
     21 C12         -3.9770     0.0000     4.4290 cd         1 PK2       0.371700
     22 N16         -5.0960     0.0010     5.2300 nu         1 PK2      -0.431200
     23 C17         -6.4300     0.0020     4.6250 c3         1 PK2       0.185100
     24 N13         -3.9910     0.0010     3.0640 na         1 PK2       0.237700
     25 C8          -2.6680     0.0000     2.6400 ca         1 PK2      -0.254200
     26 C7          -2.0710     0.0010     1.3960 ca         1 PK2       0.017000
     27 C1          -0.6810     0.0060     1.3020 ca         1 PK2      -0.183600
     28 HN3          1.8490    -0.0000    -0.8690 hn         1 PK2       0.182500
     29 HN15         3.7260    -0.6060     0.3870 hn         1 PK2       0.213133
     30 HN1A         3.7880    -0.3250     1.9950 hn         1 PK2       0.213133
     31 H18          1.2840    -0.5110     4.7810 hc         1 PK2       0.040200
     32 H18A        -0.1850    -0.5110     5.7660 hc         1 PK2       0.040200
     33 H19         -0.3040     1.9530     5.5900 h1         1 PK2       0.007700
     34 H19A         1.1660     1.9530     4.6050 h1         1 PK2       0.007700
     35 HN20         0.9640     0.9570     7.3450 hn         1 PK2       0.263800
     36 H21          2.2850     3.3340     6.2730 h1         1 PK2       0.008200
     37 H21A         0.8160     3.3350     7.2580 h1         1 PK2       0.008200
     38 H22          2.0960     2.1780     9.0800 hc         1 PK2       0.032700
     39 H27          1.8320     4.6350     9.0770 hc         1 PK2       0.015200
     40 H27A         3.3010     4.7900     8.0970 hc         1 PK2       0.015200
     41 H26          3.7910     5.1630    10.4900 hc         1 PK2       0.015950
     42 H26A         3.1450     3.5570    10.8710 hc         1 PK2       0.015950
     43 H25          5.6100     3.5020    10.7030 hc         1 PK2       0.015200
     44 H25A         5.5090     4.1270     9.0470 hc         1 PK2       0.015200
     45 H24          4.3030     1.5150    10.0290 hc         1 PK2       0.015950
     46 H24A         5.7720     1.6700     9.0490 hc         1 PK2       0.015950
     47 H23          3.8130     1.1430     7.6360 hc         1 PK2       0.015200
     48 H23A         4.4590     2.7490     7.2560 hc         1 PK2       0.015200
     49 HN16        -4.9980     0.0150     6.2260 hn         1 PK2       0.321800
     50 H17         -7.1810     0.0020     5.4070 h1         1 PK2       0.015367
     51 H17A        -6.5490    -0.8820     4.0110 h1         1 PK2       0.015367
     52 H17B        -6.5480     0.8870     4.0120 h1         1 PK2       0.015367
     53 HN13        -4.8030     0.0010     2.4790 hn         1 PK2       0.147700
     54 H7          -2.6750     0.1270     0.5050 ha         1 PK2       0.134000
     55 H153         3.7480     0.9290     0.9460 hn         1 PK2       0.213133
@<TRIPOS>BOND
     1     1     2 2   
     2     1     3 1   
     3     1    27 1   
     4     3     4 1   
     5     3    28 1   
     6     4     5 1   
     7     4     6 2   
     8     5    29 1   
     9     5    30 1   
    10     5    55 1   
    11     6     7 1   
    12     7     8 ar  
    13     7    27 ar  
    14     8     9 1   
    15     8    19 ar  
    16     9    10 1   
    17     9    31 1   
    18     9    32 1   
    19    10    11 1   
    20    10    33 1   
    21    10    34 1   
    22    11    12 1   
    23    11    35 1   
    24    12    13 1   
    25    12    36 1   
    26    12    37 1   
    27    13    14 1   
    28    13    18 1   
    29    13    38 1   
    30    14    15 1   
    31    14    39 1   
    32    14    40 1   
    33    15    16 1   
    34    15    41 1   
    35    15    42 1   
    36    16    17 1   
    37    16    43 1   
    38    16    44 1   
    39    17    18 1   
    40    17    45 1   
    41    17    46 1   
    42    18    47 1   
    43    18    48 1   
    44    19    20 1   
    45    19    25 ar  
    46    20    21 2   
    47    21    22 1   
    48    21    24 1   
    49    22    23 1   
    50    22    49 1   
    51    23    50 1   
    52    23    51 1   
    53    23    52 1   
    54    24    25 1   
    55    24    53 1   
    56    25    26 ar  
    57    26    27 ar  
    58    26    54 1   
@<TRIPOS>SUBSTRUCTURE
     1 PK2         1 TEMP              0 ****  ****    0 ROOT
