@<TRIPOS>MOLECULE
molecule
   35    37     1     0     0
SMALL
bcc


@<TRIPOS>ATOM
      1 N6           0.0000     0.0000     0.0000 na         1 PK3      -0.288300
      2 C11          1.3660     0.0000     0.0000 cc         1 PK3       0.718700
      3 N5           2.1570     0.0010    -1.1300 nu         1 PK3      -0.854200
      4 C12          1.5380     0.0020    -2.4570 c3         1 PK3       0.213100
      5 N4           1.8140     0.0000     1.2300 nd         1 PK3      -0.656100
      6 C6           0.7650    -0.0010     2.0970 ca         1 PK3       0.179400
      7 C7          -0.4130    -0.0010     1.3210 ca         1 PK3      -0.090200
      8 C8          -1.6560    -0.0010     1.9270 ca         1 PK3       0.007700
      9 C9          -2.9070    -0.0010     1.0870 c3         1 PK3      -0.040100
     10 C3          -1.7470    -0.0010     3.3180 ca         1 PK3       0.104400
     11 N2          -2.9510    -0.0010     3.9440 nc         1 PK3      -0.537100
     12 C4          -3.0440    -0.0010     5.2480 cd         1 PK3       0.424800
     13 N3          -4.2950    -0.0010     5.8160 nz         1 PK3      -0.726600
     14 N1          -1.9560    -0.0000     6.0730 ns         1 PK3      -0.487400
     15 C1          -0.7030    -0.0000     5.5620 c          1 PK3       0.724100
     16 O1           0.2740    -0.0000     6.2880 o          1 PK3      -0.555500
     17 C2          -0.5650    -0.0010     4.0990 ca         1 PK3      -0.162600
     18 C5           0.6830    -0.0010     3.4860 ca         1 PK3      -0.020000
     19 C10         -3.3310    -1.4440     0.8040 c3         1 PK3       0.147400
     20 O2          -4.5170    -1.4440     0.0070 oh         1 PK3      -0.608800
     21 HN6         -0.5880     0.1250    -0.8000 hn         1 PK3       0.318700
     22 HN5          3.1540    -0.0060    -1.0430 hn         1 PK3       0.488800
     23 H12          0.9340     0.8940    -2.5730 h1         1 PK3       0.051033
     24 H12A         0.9120    -0.8750    -2.5640 h1         1 PK3       0.051033
     25 H12B         2.3110    -0.0110    -3.2160 h1         1 PK3       0.051033
     26 H9          -2.7140     0.5090     0.1510 hc         1 PK3       0.070200
     27 H9A         -3.7000     0.5100     1.6200 hc         1 PK3       0.070200
     28 HN3         -4.9810    -0.1860     5.1110 hn         1 PK3       0.471800
     29 HN3A        -4.4740     0.8930     6.2280 hn         1 PK3       0.471800
     30 HN1         -2.0860    -0.0000     7.0650 hn         1 PK3       0.338500
     31 H5           1.5790    -0.1340     4.0810 ha         1 PK3       0.187000
     32 H10         -2.5380    -1.9560     0.2710 h1         1 PK3       0.024700
     33 H10A        -3.5240    -1.9540     1.7390 h1         1 PK3       0.024700
     34 HO2         -4.7880    -2.3330    -0.1540 ho         1 PK3       0.416000
     35 H33         -4.3380    -0.7020     6.5280 hn         1 PK3       0.471800
@<TRIPOS>BOND
     1     1     2 1
     2     1     7 1
     3     2     3 1
     4     2     5 2
     5     3     4 1
     6     5     6 1
     7     6     7 ar
     8     6    18 ar
     9     7     8 ar
    10     8     9 1
    11     8    10 ar
    12     9    19 1
    13    10    11 1
    14    10    17 ar
    15    11    12 2
    16    12    13 1
    17    12    14 1
    18    14    15 1
    19    15    16 2
    20    15    17 1
    21    17    18 ar
    22    19    20 1
    23     1    21 1
    24     3    22 1
    25     4    23 1
    26     4    24 1
    27     4    25 1
    28     9    26 1
    29     9    27 1
    30    13    28 1
    31    13    29 1
    32    14    30 1
    33    18    31 1
    34    19    32 1
    35    19    33 1
    36    20    34 1
    37    35    13 1
@<TRIPOS>SUBSTRUCTURE
     1 PK3         1 TEMP              0 ****  ****    0 ROOT
