@<TRIPOS>MOLECULE
PK6
   17    17     1     0     0
SMALL
bcc


@<TRIPOS>ATOM
      1 O1           0.0000     0.0000     0.0000 o          1 PK6      -0.575800
      2 S1           1.4210     0.0000     0.0000 sy         1 PK6       1.062200
      3 O2           2.1980     0.0000     1.1900 o          1 PK6      -0.575800
      4 N1           1.8890    -1.3340    -0.8630 n7         1 PK6      -0.575100
      5 C1           3.3120    -1.6060    -1.0770 c3         1 PK6       0.264100
      6 C2           1.9200     1.4170    -0.9200 cc         1 PK6      -0.055600
      7 C3           1.1790     2.0360    -1.8410 cd         1 PK6       0.012000
      8 C4           1.7810     3.1320    -2.4330 cd         1 PK6      -0.164000
      9 C5           3.0120     3.4040    -1.9950 cc         1 PK6       0.045900
     10 S2           3.4680     2.2370    -0.7600 ss         1 PK6      -0.195800
     11 H1           1.2000    -1.9710    -1.2120 hn         1 PK6       0.347800
     12 H2           3.5570    -1.4510    -2.1200 h1         1 PK6       0.002033
     13 H3           3.5290    -2.6320    -0.8030 h1         1 PK6       0.002033
     14 H4           3.9040    -0.9370    -0.4640 h1         1 PK6       0.002033
     15 H5           0.1810     1.7060    -2.1040 ha         1 PK6       0.131000
     16 H6           1.2910     3.7230    -3.1970 ha         1 PK6       0.125000
     17 H7           3.6320     4.2200    -2.3430 h4         1 PK6       0.147000
@<TRIPOS>BOND
     1     1     2 2   
     2     2     3 2   
     3     2     4 1   
     4     2     6 1   
     5     4     5 1   
     6     4    11 1   
     7     5    12 1   
     8     5    13 1   
     9     5    14 1   
    10     6     7 2   
    11     6    10 1   
    12     7     8 1   
    13     7    15 1   
    14     8     9 2   
    15     8    16 1   
    16     9    10 1   
    17     9    17 1   
@<TRIPOS>SUBSTRUCTURE
     1 PK6         1 TEMP              0 ****  ****    0 ROOT
