@<TRIPOS>MOLECULE
PK9
   50    50     1     0     0
SMALL
bcc


@<TRIPOS>ATOM
      1 O15          0.0000     0.0000     0.0000 o          1 PK9      -0.647100
      2 C14          1.2130     0.0000     0.0000 c          1 PK9       0.570100
      3 N16          1.8860     0.0000     1.1670 ns         1 PK9      -0.202900
      4 C17          1.1540     0.0010     2.4360 c3         1 PK9       0.120300
      5 C18          2.1340     0.0020     3.5810 ca         1 PK9      -0.248600
      6 C23          2.5880     1.1930     4.1120 ca         1 PK9       0.421200
      7 N22          3.4450     1.2020     5.1150 nb         1 PK9      -0.582000
      8 C21          3.9000     0.0840     5.6480 ca         1 PK9       0.413200
      9 C20          3.4900    -1.1450     5.1680 ca         1 PK9      -0.223300
     10 C19          2.5860    -1.1940     4.1190 ca         1 PK9      -0.051000
     11 C13          1.9660    -0.0070    -1.3050 c3         1 PK9      -0.095400
     12 C12          0.9720    -0.0130    -2.4680 c3         1 PK9      -0.014400
     13 C11          1.7370    -0.0200    -3.7930 c3         1 PK9      -0.025400
     14 C10          0.7430    -0.0260    -4.9560 c3         1 PK9      -0.041400
     15 C09          1.5080    -0.0320    -6.2810 c3         1 PK9       0.061000
     16 N08          0.5560    -0.0380    -7.3950 ns         1 PK9      -0.181900
     17 C06          1.0060    -0.0450    -8.6660 c          1 PK9       0.684100
     18 O07          2.2000    -0.0460    -8.8870 o          1 PK9      -0.664000
     19 O05          0.1310    -0.0510    -9.6890 os         1 PK9      -0.420900
     20 C02          0.6860    -0.0580   -11.0300 c3         1 PK9       0.195800
     21 C04          1.5470    -1.3070   -11.2200 c3         1 PK9      -0.028433
     22 C03         -0.4520    -0.0630   -12.0530 c3         1 PK9      -0.028433
     23 C01          1.5480     1.1910   -11.2330 c3         1 PK9      -0.028433
     24 H16          2.8870     0.0020     1.1670 hn         1 PK9       0.176500
     25 H131         2.5900     0.8760    -1.3670 hc         1 PK9       0.027200
     26 H132         2.5890    -0.8930    -1.3580 hc         1 PK9       0.027200
     27 H171         0.5310     0.8860     2.4930 h1         1 PK9       0.030700
     28 H172         0.5310    -0.8830     2.4940 h1         1 PK9       0.030700
     29 H23          2.2370     2.1310     3.7010 h4         1 PK9      -0.014900
     30 H19          2.2470    -2.1440     3.7230 ha         1 PK9       0.114000
     31 H21          4.6050     0.1300     6.4690 h4         1 PK9      -0.018900
     32 H20          3.8660    -2.0600     5.6110 ha         1 PK9       0.116000
     33 H121         0.3500     0.8720    -2.4150 hc         1 PK9       0.030700
     34 H122         0.3490    -0.8970    -2.4060 hc         1 PK9       0.030700
     35 H111         2.3590    -0.9050    -3.8460 hc         1 PK9       0.015700
     36 H112         2.3600     0.8640    -3.8560 hc         1 PK9       0.015700
     37 H101         0.1200     0.8590    -4.9030 hc         1 PK9       0.020200
     38 H102         0.1200    -0.9100    -4.8950 hc         1 PK9       0.020200
     39 H091         2.1300     0.8520    -6.3430 h1         1 PK9       0.025700
     40 H092         2.1310    -0.9170    -6.3340 h1         1 PK9       0.025700
     41 H08         -0.4280    -0.0120    -7.2130 hn         1 PK9       0.176500
     42 H041         1.6110    -1.5450   -12.2740 hc         1 PK9       0.018589
     43 H042         1.0990    -2.1380   -10.6880 hc         1 PK9       0.018589
     44 H043         2.5410    -1.1230   -10.8300 hc         1 PK9       0.018589
     45 H031        -0.0380    -0.0680   -13.0540 hc         1 PK9       0.018589
     46 H032        -1.0620     0.8230   -11.9190 hc         1 PK9       0.018589
     47 H033        -1.0620    -0.9460   -11.9100 hc         1 PK9       0.018589
     48 H011         1.6120     1.4180   -12.2900 hc         1 PK9       0.018589
     49 H012         1.1000     2.0270   -10.7100 hc         1 PK9       0.018589
     50 H013         2.5420     1.0110   -10.8410 hc         1 PK9       0.018589
@<TRIPOS>BOND
     1     1     2 2   
     2     2     3 1   
     3     2    11 1   
     4     3     4 1   
     5     3    24 1   
     6     4     5 1   
     7     4    27 1   
     8     4    28 1   
     9     5     6 ar  
    10     5    10 ar  
    11     6     7 ar  
    12     6    29 1   
    13     7     8 ar  
    14     8     9 ar  
    15     8    31 1   
    16     9    10 ar  
    17     9    32 1   
    18    10    30 1   
    19    11    12 1   
    20    11    25 1   
    21    11    26 1   
    22    12    13 1   
    23    12    33 1   
    24    12    34 1   
    25    13    14 1   
    26    13    35 1   
    27    13    36 1   
    28    14    15 1   
    29    14    37 1   
    30    14    38 1   
    31    15    16 1   
    32    15    39 1   
    33    15    40 1   
    34    16    17 1   
    35    16    41 1   
    36    17    18 2   
    37    17    19 1   
    38    19    20 1   
    39    20    21 1   
    40    20    22 1   
    41    20    23 1   
    42    21    42 1   
    43    21    43 1   
    44    21    44 1   
    45    22    45 1   
    46    22    46 1   
    47    22    47 1   
    48    23    48 1   
    49    23    49 1   
    50    23    50 1   
@<TRIPOS>SUBSTRUCTURE
     1 PK9         1 TEMP              0 ****  ****    0 ROOT
