@<TRIPOS>MOLECULE
molecule
   46    48     1     0     0
SMALL
bcc


@<TRIPOS>ATOM
      1 C1           0.0000     0.0000     0.0000 c3         1 PKA      -0.092100
      2 C2           1.5300     0.0000     0.0000 c3         1 PKA      -0.097400
      3 C3           2.0400     0.0000     1.4430 c3         1 PKA       0.108700
      4 C4           3.5650    -0.1250     1.4440 c3         1 PKA      -0.107100
      5 N5           1.6520     1.2520     2.0970 n          1 PKA      -0.467800
      6 C6           2.1120     2.5340     1.5590 c3         1 PKA       0.103300
      7 C7           0.8710     1.2240     3.1960 c          1 PKA       0.578600
      8 O8           0.5620     0.1600     3.6950 o          1 PKA      -0.621100
      9 C9           0.3880     2.4880     3.7920 ca         1 PKA       0.357800
     10 N18          0.6320     3.6350     3.1560 nb         1 PKA      -0.665000
     11 C17          0.2340     4.8030     3.6240 cp         1 PKA       0.484800
     12 C10         -0.3050     2.4410     4.9880 ca         1 PKA      -0.157300
     13 C11         -0.7670     3.6380     5.5630 ca         1 PKA      -0.030000
     14 C12         -1.4760     3.6620     6.7720 ca         1 PKA      -0.109000
     15 C16         -0.5000     4.8560     4.8850 ca         1 PKA      -0.132300
     16 C13         -1.8980     4.8550     7.2780 ca         1 PKA      -0.117000
     17 C14         -1.6360     6.0500     6.6120 ca         1 PKA      -0.119000
     18 C15         -0.9480     6.0610     5.4330 ca         1 PKA      -0.114000
     19 C19          0.5310     6.0470     2.8780 cp         1 PKA      -0.135500
     20 C24          0.2050     6.1480     1.5240 ca         1 PKA       0.055400
     21 C23          0.4840     7.3120     0.8350 ca         1 PKA      -0.126000
     22 C20          1.1320     7.1260     3.5260 ca         1 PKA      -0.107000
     23 C21          1.4060     8.2820     2.8270 ca         1 PKA      -0.132000
     24 C22          1.0860     8.3760     1.4840 ca         1 PKA      -0.111000
     25 Cl          -0.5490     4.8140     0.7100 cl         1 PKA      -0.085400
     26 H1C         -0.3610     1.0010     0.2010 hc         1 PKA       0.037033
     27 H1A         -0.3610    -0.6750     0.7660 hc         1 PKA       0.037033
     28 H1B         -0.3610    -0.3260    -0.9680 hc         1 PKA       0.037033
     29 H2A          1.8910     0.8840    -0.5110 hc         1 PKA       0.044700
     30 H2B          1.8910    -0.8850    -0.5110 hc         1 PKA       0.044700
     31 H3           1.6080    -0.8370     1.9780 h1         1 PKA       0.091700
     32 H4C          3.9790     0.4980     0.6600 hc         1 PKA       0.040033
     33 H4A          3.8430    -1.1570     1.2700 hc         1 PKA       0.040033
     34 H4B          3.9530     0.1970     2.4030 hc         1 PKA       0.040033
     35 H6A          1.2700     3.0780     1.1500 h1         1 PKA       0.045367
     36 H6B          2.5670     3.1160     2.3520 h1         1 PKA       0.045367
     37 H6C          2.8420     2.3570     0.7780 h1         1 PKA       0.045367
     38 H10         -0.3520     1.5160     5.5510 ha         1 PKA       0.167000
     39 H12         -1.6860     2.7400     7.3000 ha         1 PKA       0.142000
     40 H13         -2.4470     4.8750     8.2120 ha         1 PKA       0.134000
     41 H14         -1.9840     6.9840     7.0350 ha         1 PKA       0.133000
     42 H15         -0.7510     6.9980     4.9260 ha         1 PKA       0.144000
     43 H23          0.2330     7.3910    -0.2160 ha         1 PKA       0.147000
     44 H20          1.3840     7.0550     4.5780 ha         1 PKA       0.145000
     45 H21          1.8750     9.1190     3.3290 ha         1 PKA       0.137000
     46 H22          1.3030     9.2860     0.9390 ha         1 PKA       0.138000
@<TRIPOS>BOND
     1    24    21 ar
     2    24    23 ar
     3    21    20 ar
     4    23    22 ar
     5    20    25 1
     6    20    19 ar
     7    17    18 ar
     8    17    16 ar
     9    22    19 ar
    10    18    15 ar
    11    19    11 1
    12    16    14 ar
    13    15    11 ar
    14    15    13 ar
    15    11    10 ar
    16    14    13 ar
    17    13    12 ar
    18    10     9 ar
    19    12     9 ar
    20     9     7 1
    21     1     2 1
    22     3     4 1
    23     3     2 1
    24     3     5 1
    25     7     5 1
    26     7     8 2
    27     5     6 1
    28     1    26 1
    29     1    27 1
    30     1    28 1
    31     2    29 1
    32     2    30 1
    33     3    31 1
    34     4    32 1
    35     4    33 1
    36     4    34 1
    37     6    35 1
    38     6    36 1
    39     6    37 1
    40    12    38 1
    41    14    39 1
    42    16    40 1
    43    17    41 1
    44    18    42 1
    45    21    43 1
    46    22    44 1
    47    23    45 1
    48    24    46 1
@<TRIPOS>SUBSTRUCTURE
     1 PKA         1 TEMP              0 ****  ****    0 ROOT
