@<TRIPOS>MOLECULE
molecule
   45    49     1     0     0
SMALL
bcc


@<TRIPOS>ATOM
      1 C24          0.0000     0.0000     0.0000 ca         1 PKJ      -0.091500
      2 C28          0.0130    -0.0010     2.4140 ca         1 PKJ      -0.091500
      3 C25          1.3790     0.0000     0.0000 ca         1 PKJ      -0.128000
      4 C27          1.3920    -0.0010     2.4000 ca         1 PKJ      -0.128000
      5 C5           1.8620     7.2580     3.6840 ca         1 PKJ      -0.124000
      6 C6           3.0090     7.9960     3.9100 ca         1 PKJ      -0.096000
      7 C12          0.8740     8.1780     5.6720 ca         1 PKJ      -0.146000
      8 C23         -0.6940    -0.0010     1.2110 ca         1 PKJ      -0.073000
      9 C26          2.0740     0.0000     1.1960 ca         1 PKJ      -0.059300
     10 C4           0.7930     7.3470     4.5620 ca         1 PKJ       0.057600
     11 C7           3.0930     8.8270     5.0140 ca         1 PKJ       0.036100
     12 C11          2.0210     8.9190     5.8990 ca         1 PKJ       0.066100
     13 C18         -4.2430     0.9590     1.6690 cc         1 PKJ       0.429900
     14 C15         -2.6620     2.3100     2.3060 cc         1 PKJ       0.463800
     15 C20         -2.8620    -1.0400     0.7380 cc         1 PKJ      -0.063100
     16 C21         -2.1730    -0.0000     1.2180 cd         1 PKJ       0.004700
     17 C2          -0.2830     5.3820     3.7590 c          1 PKJ       0.676100
     18 C9           3.4700    10.5460     6.3900 c3         1 PKJ       0.331200
     19 C29          3.5820     0.0000     1.1880 c3         1 PKJ      -0.051800
     20 C13         -1.5390     4.6270     3.4010 c3         1 PKJ      -0.106300
     21 N17         -4.7670     2.0420     2.1790 nd         1 PKJ      -0.311000
     22 N16         -3.8310     2.8400     2.5550 nd         1 PKJ      -0.349000
     23 N22         -2.8810     1.0740     1.7240 na         1 PKJ      -0.256700
     24 N3          -0.3680     6.5990     4.3320 ns         1 PKJ      -0.469100
     25 O1           0.8030     4.8940     3.5290 o          1 PKJ      -0.579100
     26 O8           4.0940     9.6460     5.4550 os         1 PKJ      -0.323900
     27 O10          2.3500     9.7940     6.8940 os         1 PKJ      -0.324900
     28 S19         -4.5710    -0.6140     0.9340 ss         1 PKJ      -0.156300
     29 H1          -0.5430     0.0000    -0.9370 ha         1 PKJ       0.140000
     30 H2          -0.5210    -0.0010     3.3570 ha         1 PKJ       0.140000
     31 H3           1.9200     0.0010    -0.9390 ha         1 PKJ       0.139000
     32 H4           1.9420    -0.0010     3.3340 ha         1 PKJ       0.139000
     33 H6           3.8430     7.9240     3.2220 ha         1 PKJ       0.149000
     34 H7           0.0390     8.2480     6.3580 ha         1 PKJ       0.145000
     35 H8          -2.4700    -2.0330     0.5530 h4         1 PKJ       0.207000
     36 H9           3.1280    11.4410     5.8840 h2         1 PKJ       0.069200
     37 H10          4.1530    10.7930     7.1940 h2         1 PKJ       0.069200
     38 H11          3.9400     0.7330     0.4750 hc         1 PKJ       0.047700
     39 H12          3.9480     0.2500     2.1770 hc         1 PKJ       0.047700
     40 H13          3.9420    -0.9820     0.9080 hc         1 PKJ       0.047700
     41 H14         -2.1230     4.4540     4.2960 h1         1 PKJ       0.097200
     42 H15         -2.1210     5.2090     2.6970 h1         1 PKJ       0.097200
     43 H16         -1.2630     6.9770     4.5720 hn         1 PKJ       0.330500
     44 S14         -1.0940     3.0370     2.6510 ss         1 PKJ      -0.167400
     45 H5           1.7990     6.6090     2.8180 ha         1 PKJ       0.169000
@<TRIPOS>BOND
     1    28    15 1
     2    28    13 1
     3    15    16 2
     4    16     8 1
     5    16    23 1
     6    13    23 1
     7    13    21 2
     8     1     8 ar
     9     1     3 ar
    10     8     2 ar
    11     3     9 ar
    12    23    14 1
    13     2     4 ar
    14    21    22 1
    15     9     4 ar
    16     9    19 1
    17    14    22 2
    18    14    44 1
    19    44    20 1
    20    25    17 2
    21    20    17 1
    22    17    24 1
    23    24    10 1
    24     5    10 ar
    25     5     6 ar
    26    10     7 ar
    27     6    11 ar
    28     7    12 ar
    29    11    12 ar
    30    11    26 1
    31    12    27 1
    32    26    18 1
    33    27    18 1
    34     1    29 1
    35     2    30 1
    36     3    31 1
    37     4    32 1
    38     5    45 1
    39     6    33 1
    40     7    34 1
    41    15    35 1
    42    18    36 1
    43    18    37 1
    44    19    38 1
    45    19    39 1
    46    19    40 1
    47    20    41 1
    48    20    42 1
    49    24    43 1
@<TRIPOS>SUBSTRUCTURE
     1 PKJ         1 TEMP              0 ****  ****    0 ROOT
