@<TRIPOS>MOLECULE
PKJ
   45    49     1     0     0
SMALL
bcc


@<TRIPOS>ATOM
      1 C24          0.0000     0.0000     0.0000 ca         1 PKJ      -0.061500
      2 C28          0.0130    -0.0010     2.4140 ca         1 PKJ      -0.061500
      3 C25          1.3790     0.0000     0.0000 ca         1 PKJ      -0.099000
      4 C27          1.3920    -0.0010     2.4000 ca         1 PKJ      -0.099000
      5 C5           1.8620     7.2580     3.6840 ca         1 PKJ      -0.100000
      6 C6           3.0090     7.9960     3.9100 ca         1 PKJ      -0.068000
      7 C12          0.8740     8.1780     5.6720 ca         1 PKJ      -0.117000
      8 C23         -0.6940    -0.0010     1.2110 ca         1 PKJ      -0.080000
      9 C26          2.0740     0.0000     1.1960 ca         1 PKJ      -0.064300
     10 C4           0.7930     7.3470     4.5620 ca         1 PKJ      -0.093400
     11 C7           3.0930     8.8270     5.0140 ca         1 PKJ       0.047100
     12 C11          2.0210     8.9190     5.8990 ca         1 PKJ       0.073100
     13 C18         -4.2430     0.9590     1.6690 cc         1 PKJ       0.282900
     14 C15         -2.6620     2.3100     2.3060 cc         1 PKJ       0.312800
     15 C20         -2.8620    -1.0400     0.7380 cc         1 PKJ       0.044900
     16 C21         -2.1730    -0.0000     1.2180 cd         1 PKJ      -0.160300
     17 C2          -0.2830     5.3820     3.7590 c          1 PKJ       0.574100
     18 C9           3.4700    10.5460     6.3900 c3         1 PKJ       0.432200
     19 C29          3.5820     0.0000     1.1880 c3         1 PKJ       0.059200
     20 C13         -1.5390     4.6270     3.4010 c3         1 PKJ       0.014700
     21 N17         -4.7670     2.0420     2.1790 nd         1 PKJ      -0.264000
     22 N16         -3.8310     2.8400     2.5550 nd         1 PKJ      -0.329000
     23 N22         -2.8810     1.0740     1.7240 na         1 PKJ       0.262300
     24 N3          -0.3680     6.5990     4.3320 ns         1 PKJ      -0.023100
     25 O1           0.8030     4.8940     3.5290 o          1 PKJ      -0.612100
     26 O8           4.0940     9.6460     5.4550 os         1 PKJ      -0.311900
     27 O10          2.3500     9.7940     6.8940 os         1 PKJ      -0.313900
     28 S19         -4.5710    -0.6140     0.9340 ss         1 PKJ      -0.286300
     29 H1          -0.5430     0.0000    -0.9370 ha         1 PKJ       0.110000
     30 H2          -0.5210    -0.0010     3.3570 ha         1 PKJ       0.110000
     31 H3           1.9200     0.0010    -0.9390 ha         1 PKJ       0.112000
     32 H4           1.9420    -0.0010     3.3340 ha         1 PKJ       0.112000
     33 H6           3.8430     7.9240     3.2220 ha         1 PKJ       0.115000
     34 H7           0.0390     8.2480     6.3580 ha         1 PKJ       0.115000
     35 H8          -2.4700    -2.0330     0.5530 h4         1 PKJ       0.177000
     36 H9           3.1280    11.4410     5.8840 h2         1 PKJ       0.012700
     37 H10          4.1530    10.7930     7.1940 h2         1 PKJ       0.012700
     38 H11          3.9400     0.7330     0.4750 hc         1 PKJ       0.010700
     39 H12          3.9480     0.2500     2.1770 hc         1 PKJ       0.010700
     40 H13          3.9420    -0.9820     0.9080 hc         1 PKJ       0.010700
     41 H14         -2.1230     4.4540     4.2960 h1         1 PKJ       0.062700
     42 H15         -2.1210     5.2090     2.6970 h1         1 PKJ       0.062700
     43 H16         -1.2630     6.9770     4.5720 hn         1 PKJ       0.169500
     44 S14         -1.0940     3.0370     2.6510 ss         1 PKJ      -0.310400
     45 H5           1.7990     6.6090     2.8180 ha         1 PKJ       0.144000
@<TRIPOS>BOND
     1     1     3 ar  
     2     1     8 ar  
     3     1    29 1   
     4     2     4 ar  
     5     2     8 ar  
     6     2    30 1   
     7     3     9 ar  
     8     3    31 1   
     9     4     9 ar  
    10     4    32 1   
    11     5     6 ar  
    12     5    10 ar  
    13     5    45 1   
    14     6    11 ar  
    15     6    33 1   
    16     7    10 ar  
    17     7    12 ar  
    18     7    34 1   
    19     8    16 1   
    20     9    19 1   
    21    10    24 1   
    22    11    12 ar  
    23    11    26 1   
    24    12    27 1   
    25    13    21 2   
    26    13    23 1   
    27    13    28 1   
    28    14    22 2   
    29    14    23 1   
    30    14    44 1   
    31    15    16 2   
    32    15    28 1   
    33    15    35 1   
    34    16    23 1   
    35    17    20 1   
    36    17    24 1   
    37    17    25 2   
    38    18    26 1   
    39    18    27 1   
    40    18    36 1   
    41    18    37 1   
    42    19    38 1   
    43    19    39 1   
    44    19    40 1   
    45    20    41 1   
    46    20    42 1   
    47    20    44 1   
    48    21    22 1   
    49    24    43 1   
@<TRIPOS>SUBSTRUCTURE
     1 PKJ         1 TEMP              0 ****  ****    0 ROOT
