@<TRIPOS>MOLECULE
PKL
   45    49     1     0     0
SMALL
bcc


@<TRIPOS>ATOM
      1 C23          0.0000     0.0000     0.0000 ca         1 PKL      -0.087000
      2 C4           6.6040     6.5360     0.6440 ca         1 PKL      -0.053500
      3 C6           6.2730     5.4930     2.7950 ca         1 PKL      -0.053500
      4 C22          1.3820     0.0000     0.0000 ca         1 PKL      -0.100000
      5 C3           5.3660     7.1340     0.7510 ca         1 PKL      -0.099500
      6 C7           5.0340     6.0940     2.8880 ca         1 PKL      -0.099500
      7 C24         -0.6920     0.0020     1.1970 ca         1 PKL      -0.100000
      8 C27          1.3830     0.0010     2.3950 ca         1 PKL      -0.087000
      9 C13          8.4680     1.4970     0.9740 c2         1 PKL      -0.056000
     10 C5           7.0660     5.7060     1.6680 ca         1 PKL      -0.046000
     11 C2           4.5820     6.9140     1.8690 ca         1 PKL      -0.062000
     12 C21          2.0740     0.0000     1.1970 ca         1 PKL      -0.069000
     13 C25         -0.0000    -0.0030     2.3950 ca         1 PKL      -0.110000
     14 C14          7.6510     2.5940     1.1570 c2         1 PKL      -0.408000
     15 C11          9.7550     3.2120     1.2550 c2         1 PKL      -0.347000
     16 C9           9.5170     5.7700     1.6680 c2         1 PKL      -0.225000
     17 C8           8.3900     5.0570     1.5570 c2         1 PKL      -0.160000
     18 C16          6.2340     2.6020     1.1620 c2         1 PKL       0.320000
     19 C1           3.2420     7.5930     1.9870 c3         1 PKL      -0.064000
     20 C20          3.5810    -0.0010     1.1970 c3         1 PKL      -0.314000
     21 C19          4.0930     1.4410     1.1950 DU         1 PKL      -0.123000
     22 N15          8.4970     3.6990     1.3380 na         1 PKL       0.513000
     23 N12          9.7270     1.9100     1.0460 n2         1 PKL      -0.042000
     24 N18          5.5530     1.4420     1.0850 ns         1 PKL      -0.011000
     25 O17          5.6320     3.6580     1.2350 o          1 PKL      -0.405000
     26 S10         10.8340     4.6000     1.4740 ss         1 PKL       0.297000
     27 Cl1         -0.8680    -0.0000     3.8990 cl         1 PKL       0.049000
     28 H1          -0.5420    -0.0000    -0.9380 ha         1 PKL       0.106000
     29 H3           6.6240     4.8510     3.5940 ha         1 PKL       0.101000
     30 H4           1.9240    -0.0010    -0.9380 ha         1 PKL       0.108000
     31 H5           5.0050     7.7780    -0.0420 ha         1 PKL       0.105500
     32 H6           4.4160     5.9290     3.7620 ha         1 PKL       0.105500
     33 H7          -1.7750     0.0020     1.1970 ha         1 PKL       0.115000
     34 H8           1.9260     0.0010     3.3330 ha         1 PKL       0.118000
     35 H9           8.1410     0.4680     0.8860 h4         1 PKL       0.147000
     36 H10          9.5820     6.8280     1.8860 h4         1 PKL       0.177000
     37 H11          2.6740     7.4320     1.0790 hc         1 PKL       0.047000
     38 H12          2.7000     7.1790     2.8290 hc         1 PKL       0.047000
     39 H13          3.3870     8.6560     2.1390 hc         1 PKL       0.047000
     40 H14          3.9420     0.0690     0.1780 hc         1 PKL       0.099000
     41 H15          3.9430     0.8460     1.7670 DU         1 PKL       0.270000
     42 H16          3.5560     2.0140     0.4480 ha         1 PKL       0.073000
     43 H17          3.9320     1.8820     2.1720 ha         1 PKL       0.073000
     44 H18          5.9340     0.6100     1.4910 hn         1 PKL       0.103000
     45 H2           7.2160     6.7100    -0.2330 ha         1 PKL       0.101000
@<TRIPOS>BOND
     1     1     4 1   
     2     1     7 1   
     3     1    28 1   
     4     2     5 1   
     5     2    10 1   
     6     2    45 1   
     7     3     6 1   
     8     3    10 1   
     9     3    29 1   
    10     4    12 1   
    11     4    30 1   
    12     5    11 1   
    13     5    31 1   
    14     6    11 1   
    15     6    32 1   
    16     7    13 1   
    17     7    33 1   
    18     8    12 1   
    19     8    13 1   
    20     8    34 1   
    21     9    14 1   
    22     9    23 1   
    23     9    35 1   
    24    10    17 1   
    25    11    19 1   
    26    12    20 1   
    27    13    27 1   
    28    14    18 1   
    29    14    22 1   
    30    15    22 1   
    31    15    23 1   
    32    15    26 1   
    33    16    17 1   
    34    16    26 1   
    35    16    36 1   
    36    17    22 1   
    37    18    24 1   
    38    18    25 1   
    39    19    37 1   
    40    19    38 1   
    41    19    39 1   
    42    20    21 1   
    43    20    40 1   
    44    20    41 1   
    45    21    24 1   
    46    21    41 1   
    47    21    42 1   
    48    21    43 1   
    49    24    44 1   
@<TRIPOS>SUBSTRUCTURE
     1 PKL         1 TEMP              0 ****  ****    0 ROOT
