@<TRIPOS>MOLECULE
molecule
   45    48     1     0     0
SMALL
bcc


@<TRIPOS>ATOM
      1 C23          0.0000     0.0000     0.0000 ca         1 PKL      -0.117000
      2 C4           6.6040     6.5360     0.6440 ca         1 PKL      -0.078500
      3 C6           6.2730     5.4930     2.7950 ca         1 PKL      -0.078500
      4 C22          1.3820     0.0000     0.0000 ca         1 PKL      -0.128000
      5 C3           5.3660     7.1340     0.7510 ca         1 PKL      -0.128000
      6 C7           5.0340     6.0940     2.8880 ca         1 PKL      -0.128000
      7 C24         -0.6920     0.0020     1.1970 ca         1 PKL      -0.124000
      8 C27          1.3830     0.0010     2.3950 ca         1 PKL      -0.114000
      9 C13          8.4680     1.4970     0.9740 cc         1 PKL       0.410200
     10 C5           7.0660     5.7060     1.6680 ca         1 PKL      -0.044000
     11 C2           4.5820     6.9140     1.8690 ca         1 PKL      -0.062300
     12 C21          2.0740     0.0000     1.1970 ca         1 PKL      -0.072300
     13 C25         -0.0000    -0.0030     2.3950 ca         1 PKL       0.030400
     14 C14          7.6510     2.5940     1.1570 cd         1 PKL      -0.316200
     15 C11          9.7550     3.2120     1.2550 cd         1 PKL       0.495900
     16 C9           9.5170     5.7700     1.6680 cc         1 PKL      -0.070100
     17 C8           8.3900     5.0570     1.5570 cd         1 PKL       0.001700
     18 C16          6.2340     2.6020     1.1620 c          1 PKL       0.700700
     19 C1           3.2420     7.5930     1.9870 c3         1 PKL      -0.050800
     20 C20          3.5810    -0.0010     1.1970 c3         1 PKL      -0.285100
     21 C19          4.0930     1.4410     1.1950 c3         1 PKL       0.046000
     22 N15          8.4970     3.6990     1.3380 na         1 PKL      -0.082900
     23 N12          9.7270     1.9100     1.0460 nc         1 PKL      -0.669000
     24 N18          5.5530     1.4420     1.0850 ns         1 PKL      -0.566900
     25 O17          5.6320     3.6580     1.2350 o          1 PKL      -0.594100
     26 S10         10.8340     4.6000     1.4740 ss         1 PKL      -0.146300
     27 Cl1         -0.8680    -0.0000     3.8990 cl         1 PKL      -0.111400
     28 H1          -0.5420    -0.0000    -0.9380 ha         1 PKL       0.137000
     29 H3           6.6240     4.8510     3.5940 ha         1 PKL       0.130000
     30 H4           1.9240    -0.0010    -0.9380 ha         1 PKL       0.135000
     31 H5           5.0050     7.7780    -0.0420 ha         1 PKL       0.131000
     32 H6           4.4160     5.9290     3.7620 ha         1 PKL       0.131000
     33 H7          -1.7750     0.0020     1.1970 ha         1 PKL       0.144000
     34 H8           1.9260     0.0010     3.3330 ha         1 PKL       0.145000
     35 H9           8.1410     0.4680     0.8860 h4         1 PKL       0.056100
     36 H10          9.5820     6.8280     1.8860 h4         1 PKL       0.209000
     37 H11          2.6740     7.4320     1.0790 hc         1 PKL       0.044367
     38 H12          2.7000     7.1790     2.8290 hc         1 PKL       0.044367
     39 H13          3.3870     8.6560     2.1390 hc         1 PKL       0.044367
     40 H14          3.9420     0.0690     0.1780 hc         1 PKL       0.173200
     41 H15          3.9430     0.8460     1.7670 hc         1 PKL       0.173200
     42 H16          3.5560     2.0140     0.4480 h1         1 PKL       0.066200
     43 H17          3.9320     1.8820     2.1720 h1         1 PKL       0.066200
     44 H18          5.9340     0.6100     1.4910 hn         1 PKL       0.322500
     45 H2           7.2160     6.7100    -0.2330 ha         1 PKL       0.130000
@<TRIPOS>BOND
     1    16    26 1
     2    16    17 2
     3     5     2 ar
     4     5    11 ar
     5    26    15 1
     6    19    11 1
     7     2    10 ar
     8    11     6 ar
     9    10    17 1
    10    10     3 ar
    11     6     3 ar
    12    17    22 1
    13    15    22 1
    14    15    23 2
    15    22    14 1
    16    23     9 1
    17    14     9 2
    18    14    18 1
    19    25    18 2
    20    18    24 1
    21    24    21 1
    22    21    20 1
    23     4     1 ar
    24     4    12 ar
    25     1     7 ar
    26    20    12 1
    27    12     8 ar
    28     7    13 ar
    29     8    13 ar
    30    13    27 1
    31     1    28 1
    32     2    45 1
    33     3    29 1
    34     4    30 1
    35     5    31 1
    36     6    32 1
    37     7    33 1
    38     8    34 1
    39     9    35 1
    40    16    36 1
    41    19    37 1
    42    19    38 1
    43    19    39 1
    44    20    40 1
    45    20    41 1
    46    21    42 1
    47    21    43 1
    48    24    44 1
@<TRIPOS>SUBSTRUCTURE
     1 PKL         1 TEMP              0 ****  ****    0 ROOT
