@<TRIPOS>MOLECULE
PKT
   65    67     1     0     0
SMALL
bcc


@<TRIPOS>ATOM
      1 C01          0.0000     0.0000     0.0000 c3         1 PKT      -0.039767
      2 C02          1.5300     0.0000     0.0000 c3         1 PKT       0.195800
      3 C03          2.0390     0.0000     1.4430 c3         1 PKT      -0.039767
      4 C04          2.0400    -1.2490    -0.7200 c3         1 PKT      -0.039767
      5 O05          2.0140     1.1860    -0.6840 os         1 PKT      -0.414900
      6 C06          1.6530     2.3770    -0.1730 c          1 PKT       0.695100
      7 O07          0.9510     2.4260     0.8180 o          1 PKT      -0.680000
      8 N08          2.0680     3.5160    -0.7600 ns         1 PKT      -0.148900
      9 C09          1.6740     4.8130    -0.2040 c3         1 PKT       0.070700
     10 C10          2.1880     4.9290     1.2330 c3         1 PKT       0.041700
     11 S11          4.0020     4.9410     1.2280 ss         1 PKT      -0.439200
     12 C12          4.4140     5.0810     2.9880 c3         1 PKT       0.106700
     13 C13          5.9350     5.1040     3.1560 c3         1 PKT      -0.078400
     14 C14          6.2770     5.2210     4.6190 c          1 PKT       0.570100
     15 O15          5.3930     5.2800     5.4460 o          1 PKT      -0.647100
     16 N16          7.5670     5.2590     5.0080 ns         1 PKT      -0.199900
     17 C17          7.9000     5.3730     6.4300 c3         1 PKT       0.120300
     18 C18          9.3970     5.3950     6.5950 ca         1 PKT      -0.249600
     19 C19         10.0880     6.5980     6.5790 ca         1 PKT      -0.051000
     20 C20         11.4660     6.5700     6.7340 ca         1 PKT      -0.223300
     21 C21         12.1000     5.3540     6.9010 ca         1 PKT       0.413200
     22 N22         11.4120     4.2290     6.9110 nb         1 PKT      -0.581000
     23 C23         10.1000     4.2180     6.7710 ca         1 PKT       0.421200
     24 C24          0.1490     4.9290    -0.2120 c3         1 PKT       0.027800
     25 C25         -0.3470     4.9390    -1.6330 cc         1 PKT      -0.152400
     26 C26         -0.6160     6.0230    -2.3780 cd         1 PKT      -0.268100
     27 N27         -1.0460     5.6400    -3.6210 na         1 PKT       0.354600
     28 C28         -1.0640     4.2670    -3.7070 ca         1 PKT      -0.226200
     29 C29         -1.4070     3.3750    -4.7180 ca         1 PKT      -0.105000
     30 C30         -1.3160     2.0180    -4.4950 ca         1 PKT      -0.084000
     31 C31         -0.8840     1.5300    -3.2700 ca         1 PKT      -0.129000
     32 C32         -0.5420     2.3880    -2.2620 ca         1 PKT      -0.079000
     33 C33         -0.6210     3.7670    -2.4690 ca         1 PKT      -0.092800
     34 H01         -0.3610    -0.0110    -1.0210 hc         1 PKT       0.022033
     35 H01A        -0.3610     0.8900     0.5010 hc         1 PKT       0.022033
     36 H01B        -0.3610    -0.8790     0.5200 hc         1 PKT       0.022033
     37 H03          2.0720    -1.0170     1.8140 hc         1 PKT       0.022033
     38 H03A         3.0330     0.4290     1.4750 hc         1 PKT       0.022033
     39 H03B         1.3710     0.5880     2.0610 hc         1 PKT       0.022033
     40 H04          1.5910    -2.1300    -0.2780 hc         1 PKT       0.022033
     41 H04A         3.1180    -1.3060    -0.6250 hc         1 PKT       0.022033
     42 H04B         1.7730    -1.1960    -1.7690 hc         1 PKT       0.022033
     43 HN08         2.6860     3.4770    -1.5460 hn         1 PKT       0.182500
     44 H09          2.1000     5.6080    -0.8040 h1         1 PKT       0.043700
     45 H10          1.8340     4.0850     1.8120 h1         1 PKT       0.065700
     46 H10A         1.8220     5.8480     1.6740 h1         1 PKT       0.065700
     47 H12          3.9930     5.9970     3.3860 h1         1 PKT       0.050700
     48 H12A         4.0040     4.2330     3.5240 h1         1 PKT       0.050700
     49 H13          6.3440     5.9520     2.6200 hc         1 PKT       0.039700
     50 H13A         6.3560     4.1880     2.7580 hc         1 PKT       0.039700
     51 HN16         8.2970     5.1800     4.3280 hn         1 PKT       0.178500
     52 H17          7.4800     6.2890     6.8270 h1         1 PKT       0.031200
     53 H17A         7.4900     4.5250     6.9660 h1         1 PKT       0.031200
     54 H19          9.5630     7.5370     6.4470 ha         1 PKT       0.114000
     55 H20         12.0370     7.4900     6.7270 ha         1 PKT       0.116000
     56 H21         13.1770     5.3240     7.0200 h4         1 PKT      -0.018900
     57 H23          9.5690     3.2740     6.7850 h4         1 PKT      -0.014900
     58 H24         -0.1460     5.8480     0.2800 hc         1 PKT       0.045700
     59 H24A        -0.2800     4.0840     0.3150 hc         1 PKT       0.045700
     60 H26         -0.5100     7.0480    -2.0460 h4         1 PKT       0.140000
     61 HN27        -1.3080     6.2660    -4.3570 hn         1 PKT       0.113700
     62 H29         -1.7450     3.7460    -5.6780 ha         1 PKT       0.098000
     63 H30         -1.5840     1.3260    -5.2840 ha         1 PKT       0.099000
     64 H31         -0.8180     0.4610    -3.1100 ha         1 PKT       0.104000
     65 H32         -0.2060     2.0000    -1.3080 ha         1 PKT       0.132000
@<TRIPOS>BOND
     1     1     2 1   
     2     1    34 1   
     3     1    35 1   
     4     1    36 1   
     5     2     3 1   
     6     2     4 1   
     7     2     5 1   
     8     3    37 1   
     9     3    38 1   
    10     3    39 1   
    11     4    40 1   
    12     4    41 1   
    13     4    42 1   
    14     5     6 1   
    15     6     7 2   
    16     6     8 1   
    17     8     9 1   
    18     8    43 1   
    19     9    10 1   
    20     9    24 1   
    21     9    44 1   
    22    10    11 1   
    23    10    45 1   
    24    10    46 1   
    25    11    12 1   
    26    12    13 1   
    27    12    47 1   
    28    12    48 1   
    29    13    14 1   
    30    13    49 1   
    31    13    50 1   
    32    14    15 2   
    33    14    16 1   
    34    16    17 1   
    35    16    51 1   
    36    17    18 1   
    37    17    52 1   
    38    17    53 1   
    39    18    19 ar  
    40    18    23 ar  
    41    19    20 ar  
    42    19    54 1   
    43    20    21 ar  
    44    20    55 1   
    45    21    22 ar  
    46    21    56 1   
    47    22    23 ar  
    48    23    57 1   
    49    24    25 1   
    50    24    58 1   
    51    24    59 1   
    52    25    26 2   
    53    25    33 1   
    54    26    27 1   
    55    26    60 1   
    56    27    28 1   
    57    27    61 1   
    58    28    29 ar  
    59    28    33 ar  
    60    29    30 ar  
    61    29    62 1   
    62    30    31 ar  
    63    30    63 1   
    64    31    32 ar  
    65    31    64 1   
    66    32    33 ar  
    67    32    65 1   
@<TRIPOS>SUBSTRUCTURE
     1 PKT         1 TEMP              0 ****  ****    0 ROOT
