@<TRIPOS>MOLECULE
PKU
   17    17     1     0     0
SMALL
bcc


@<TRIPOS>ATOM
      1 CAA          0.0000     0.0000     0.0000 c3         1 PKU       0.092300
      2 CAD          5.7120    -0.0070     0.4680 cc         1 PKU      -0.298300
      3 CAE          4.4200     0.0010     2.2810 cd         1 PKU      -0.050000
      4 CAH          2.1390     0.0000     1.1680 c          1 PKU       0.635700
      5 CAI          5.7420    -0.0070     1.8230 cd         1 PKU      -0.058900
      6 CAJ          3.6060     0.0010     1.1680 cc         1 PKU      -0.409900
      7 NAF          1.4660     0.0000     0.0000 ns         1 PKU      -0.210900
      8 NAG          4.4200     0.0020     0.0580 na         1 PKU       0.423900
      9 OAB          1.5300    -0.0000     2.2210 o          1 PKU      -0.630100
     10 H1          -0.3610     0.8830     0.5140 h1         1 PKU       0.010367
     11 H2          -0.3610     0.0030    -1.0210 h1         1 PKU       0.010367
     12 H3          -0.3610    -0.8860     0.5080 h1         1 PKU       0.010367
     13 H4           6.5790    -0.0110    -0.1810 h4         1 PKU       0.152000
     14 H5           4.0980     0.0030     3.3150 ha         1 PKU       0.149000
     15 H6           1.9660    -0.0330    -0.8660 hn         1 PKU       0.157500
     16 H7           4.1090     0.0030    -0.8930 hn         1 PKU       0.107700
     17 Br           7.2940    -0.0190     2.9030 br         1 PKU      -0.092100
@<TRIPOS>BOND
     1     1     7 1   
     2     1    10 1   
     3     1    11 1   
     4     1    12 1   
     5     2     5 2   
     6     2     8 1   
     7     2    13 1   
     8     3     5 1   
     9     3     6 2   
    10     3    14 1   
    11     4     6 1   
    12     4     7 1   
    13     4     9 2   
    14     5    17 1   
    15     6     8 1   
    16     7    15 1   
    17     8    16 1   
@<TRIPOS>SUBSTRUCTURE
     1 PKU         1 TEMP              0 ****  ****    0 ROOT
