@<TRIPOS>MOLECULE
PL0
   20    20     1     0     0
SMALL
bcc


@<TRIPOS>ATOM
      1 C2           0.0000     0.0000     0.0000 ca         1 PL0      -0.075000
      2 C3           1.3940     0.0000     0.0000 ca         1 PL0      -0.054500
      3 C4           2.0920     0.0000     1.2080 ca         1 PL0      -0.115500
      4 C5           1.3940     0.0000     2.4160 ca         1 PL0      -0.042400
      5 C6          -0.0010     0.0000     2.4150 ca         1 PL0      -0.115500
      6 C1          -0.6980     0.0000     1.2080 ca         1 PL0      -0.054500
      7 C7           1.7540    -0.5380     4.8630 c2         1 PL0       0.246100
      8 N1           2.1000    -0.0000     3.6370 nu         1 PL0      -0.323600
      9 N2           2.3190     0.1570     5.9070 nz         1 PL0       0.159400
     10 N3           1.0020    -1.5780     5.0800 n2         1 PL0      -0.557100
     11 H2          -0.5410    -0.0000    -0.9380 ha         1 PL0       0.124000
     12 H3           1.9360    -0.0030    -0.9380 ha         1 PL0       0.122500
     13 H4           3.1750    -0.0060     1.2080 ha         1 PL0       0.109000
     14 H6          -0.5420     0.0330     3.3530 ha         1 PL0       0.109000
     15 H1          -1.7810     0.0280     1.1770 ha         1 PL0       0.122500
     16 HN1          2.9890     0.4580     3.6110 hn         1 PL0       0.278800
     17 HN21         2.1560     1.1360     5.7840 hn         1 PL0       0.226467
     18 HN22         3.3050    -0.0170     5.9300 hn         1 PL0       0.226467
     19 HN3          0.6020    -2.0770     4.3110 hn         1 PL0       0.386400
     20 H23          1.9090    -0.1440     6.7690 hn         1 PL0       0.226467
@<TRIPOS>BOND
     1     1     2 ar  
     2     1     6 ar  
     3     1    11 1   
     4     2     3 ar  
     5     2    12 1   
     6     3     4 ar  
     7     3    13 1   
     8     4     5 ar  
     9     4     8 1   
    10     5     6 ar  
    11     5    14 1   
    12     6    15 1   
    13     7     8 1   
    14     7     9 1   
    15     7    10 2   
    16     8    16 1   
    17     9    17 1   
    18     9    18 1   
    19     9    20 1   
    20    10    19 1   
@<TRIPOS>SUBSTRUCTURE
     1 PL0         1 TEMP              0 ****  ****    0 ROOT
