@<TRIPOS>MOLECULE
molecule
   20    20     1     0     0
SMALL
bcc


@<TRIPOS>ATOM
      1 C2           0.0000     0.0000     0.0000 ca         1 PL0      -0.112000
      2 C3           1.3940     0.0000     0.0000 ca         1 PL0      -0.092000
      3 C4           2.0920     0.0000     1.2080 ca         1 PL0      -0.137500
      4 C5           1.3940     0.0000     2.4160 ca         1 PL0       0.124600
      5 C6          -0.0010     0.0000     2.4150 ca         1 PL0      -0.137500
      6 C1          -0.6980     0.0000     1.2080 ca         1 PL0      -0.092000
      7 C7           1.7540    -0.5380     4.8630 c2         1 PL0       0.705100
      8 N1           2.1000    -0.0000     3.6370 nu         1 PL0      -0.734600
      9 N2           2.3190     0.1570     5.9070 nz         1 PL0      -0.825600
     10 N3           1.0020    -1.5780     5.0800 n2         1 PL0      -0.724100
     11 H2          -0.5410    -0.0000    -0.9380 ha         1 PL0       0.156000
     12 H3           1.9360    -0.0030    -0.9380 ha         1 PL0       0.156000
     13 H4           3.1750    -0.0150     1.2080 ha         1 PL0       0.136500
     14 H6          -0.5420     0.0240     3.3530 ha         1 PL0       0.136500
     15 H1          -1.7810     0.0140     1.1900 ha         1 PL0       0.156000
     16 HN1          2.9890     0.4580     3.6110 hn         1 PL0       0.443800
     17 HN21         1.7960    -0.0130     6.7430 hn         1 PL0       0.465800
     18 HN22         3.2640    -0.1470     6.0380 hn         1 PL0       0.465800
     19 HN3          0.8230    -1.8810     6.0170 hn         1 PL0       0.445400
     20 H23          2.3100     1.1360     5.7010 hn         1 PL0       0.465800
@<TRIPOS>BOND
     1     1     2 ar
     2     1     6 ar
     3     2     3 ar
     4     3     4 ar
     5     4     5 ar
     6     4     8 1
     7     5     6 ar
     8     7     8 1
     9     7     9 1
    10     7    10 2
    11     1    11 1
    12     2    12 1
    13     3    13 1
    14     5    14 1
    15     6    15 1
    16     8    16 1
    17     9    17 1
    18     9    18 1
    19    10    19 1
    20    20     9 1
@<TRIPOS>SUBSTRUCTURE
     1 PL0         1 TEMP              0 ****  ****    0 ROOT
