@<TRIPOS>MOLECULE
molecule
   47    47     1     0     0
SMALL
bcc


@<TRIPOS>ATOM
      1 N1           0.0000     0.0000     0.0000 nb         1 PL2      -0.666000
      2 C2           1.3510     0.0000     0.0000 ca         1 PL2       0.338600
      3 C2A          2.0040    -0.0010    -1.3440 c3         1 PL2      -0.138400
      4 C3           2.1270     0.0000     1.1480 ca         1 PL2      -0.025200
      5 O3           3.4850    -0.0010     1.0780 oh         1 PL2      -0.517100
      6 C4           1.4710    -0.0000     2.3700 ca         1 PL2      -0.056300
      7 C4A          2.2650    -0.0000     3.6430 c3         1 PL2       0.196100
      8 C5           0.0840     0.0010     2.4170 ca         1 PL2      -0.119600
      9 C6          -0.6010     0.0010     1.2110 ca         1 PL2       0.393200
     10 P           -1.7140     1.5900     5.4900 p5         1 PL2       1.184900
     11 N            2.5530    -1.3520     4.1060 n7         1 PL2      -0.800200
     12 CA           3.3140    -1.3280     5.3470 c3         1 PL2       0.164800
     13 CG           4.5070    -2.7160     7.1010 c3         1 PL2      -0.091400
     14 OP2         -3.0690     0.7360     5.2690 o          1 PL2      -0.774833
     15 OP3         -0.8970     0.7170     6.5770 o          1 PL2      -0.774833
     16 OP1         -1.9260     3.0320     5.8520 o          1 PL2      -0.774833
     17 OP4         -0.9070     1.3420     4.1110 os         1 PL2      -0.571200
     18 C5M         -0.6690     0.0010     3.7010 c3         1 PL2       0.238700
     19 CB           3.6820    -2.7310     5.8090 c3         1 PL2      -0.075400
     20 CD           4.8640    -4.1190     7.5820 c3         1 PL2       0.226800
     21 NE           5.6550    -4.1020     8.7820 nu         1 PL2      -0.875200
     22 CZ           6.1320    -5.1930     9.4860 c2         1 PL2       0.714100
     23 NH2          6.8440    -5.0470    10.5720 n2         1 PL2      -0.866100
     24 NH1          5.8200    -6.4350     8.9890 nz         1 PL2      -0.813600
     25 H2A1         2.7300     0.8010    -1.3940 hc         1 PL2       0.039367
     26 H2A2         2.5020    -0.9490    -1.5030 hc         1 PL2       0.039367
     27 H2A3         1.2520     0.1450    -2.1110 hc         1 PL2       0.039367
     28 HO3          3.7800    -0.8220     0.7200 ho         1 PL2       0.400000
     29 H4A1         1.7030     0.5220     4.4080 h1         1 PL2       0.066700
     30 H4A2         3.2000     0.5210     3.4750 h1         1 PL2       0.066700
     31 H6          -1.6840     0.0020     1.2420 h4         1 PL2       0.035100
     32 HN           3.0740    -1.8410     3.4050 hn         1 PL2       0.328800
     33 HA1          2.7200    -0.8470     6.1150 h1         1 PL2       0.043700
     34 HA2          4.2220    -0.7570     5.1940 h1         1 PL2       0.043700
     35 HG1          3.9370    -2.2150     7.8750 hc         1 PL2       0.059700
     36 HG2          5.4210    -2.1620     6.9260 hc         1 PL2       0.059700
     37 H5M1        -1.6150    -0.5090     3.5660 h1         1 PL2       0.051200
     38 H5M2        -0.0880    -0.5110     4.4600 h1         1 PL2       0.051200
     39 HB1          4.2570    -3.2180     5.0310 hc         1 PL2       0.044200
     40 HB2          2.7720    -3.2950     5.9800 hc         1 PL2       0.044200
     41 HD1          5.4210    -4.6250     6.8030 h1         1 PL2       0.029700
     42 HD2          3.9490    -4.6670     7.7730 h1         1 PL2       0.029700
     43 HNE          5.8850    -3.2000     9.1510 hn         1 PL2       0.461800
     44 HNH2         7.1780    -5.8510    11.0650 hn         1 PL2       0.416400
     45 HH11         6.2210    -7.1390     9.5760 hn         1 PL2       0.376800
     46 HH12         6.1860    -6.5250     8.0620 hn         1 PL2       0.376800
     47 HH13         4.8260    -6.5460     8.9670 hn         1 PL2       0.376800
@<TRIPOS>BOND
     1     1     2 ar
     2     1     9 ar
     3     2     4 ar
     4     2     3 1
     5     3    25 1
     6     3    26 1
     7     3    27 1
     8     4     5 1
     9     4     6 ar
    10     5    28 1
    11     6     7 1
    12     6     8 ar
    13     7    11 1
    14     7    29 1
    15     7    30 1
    16     8    18 1
    17     8     9 ar
    18     9    31 1
    19    10    14 1
    20    10    17 1
    21    10    16 1
    22    10    15 1
    23    11    12 1
    24    11    32 1
    25    12    19 1
    26    12    33 1
    27    12    34 1
    28    13    20 1
    29    13    19 1
    30    13    35 1
    31    13    36 1
    32    17    18 1
    33    18    37 1
    34    18    38 1
    35    19    39 1
    36    19    40 1
    37    20    21 1
    38    20    41 1
    39    20    42 1
    40    21    22 1
    41    21    43 1
    42    22    24 1
    43    22    23 2
    44    23    44 1
    45    24    45 1
    46    24    46 1
    47    47    24 1
@<TRIPOS>SUBSTRUCTURE
     1 PL2         1 TEMP              0 ****  ****    0 ROOT
