@<TRIPOS>MOLECULE
PL2
   46    46     1     0     0
SMALL
bcc


@<TRIPOS>ATOM
      1 N1         -0.2650   -0.3700    0.1020 nb        1 PL2     -0.687000
      2 C2          1.0790   -0.2740   -0.0470 ca        1 PL2      0.284600
      3 C2A         1.6800   -0.3580   -1.4100 c3        1 PL2     -0.126400
      4 C3          1.9290   -0.0830    1.0710 ca        1 PL2     -0.024200
      5 O3          3.3050   -0.0230    0.9230 oh        1 PL2     -0.509100
      6 C4          1.3990    0.0100    2.3750 ca        1 PL2     -0.015300
      7 C4A         2.3070    0.2360    3.5460 c3        1 PL2      0.154100
      8 C5          0.0080   -0.0890    2.5220 ca        1 PL2     -0.116600
      9 C6         -0.7580   -0.2760    1.3450 ca        1 PL2      0.341200
     10 P          -0.2910    0.9300    6.2620 p5        1 PL2      1.325900
     11 N           3.1750   -0.9000    3.7930 n3        1 PL2     -0.814200
     12 CA          3.6270   -0.9730    5.1650 c3        1 PL2      0.128800
     13 CG          4.2870   -2.4310    7.0570 c3        1 PL2     -0.094400
     14 OP2        -0.6250    2.2910    6.7870 o         1 PL2     -0.921833
     15 OP3         1.1620    0.5170    6.3480 o         1 PL2     -0.921833
     16 OP1        -1.2680   -0.1850    6.5040 o         1 PL2     -0.921833
     17 OP4        -0.4510    1.1350    4.5330 os        1 PL2     -0.562200
     18 C5M        -0.7130   -0.0240    3.8530 c3        1 PL2      0.264700
     19 CB          4.0940   -2.3770    5.5560 c3        1 PL2     -0.068400
     20 CD          4.7850   -3.8160    7.4700 c3        1 PL2      0.182800
     21 NE          5.0200   -3.9270    8.8940 nh        1 PL2     -0.850200
     22 CZ          5.2630   -5.2020    9.4890 c2        1 PL2      0.764100
     23 NH2         5.2220   -5.4440   10.7840 n2        1 PL2     -0.926100
     24 NH1         5.6220   -6.2790    8.6170 nh        1 PL2     -0.884800
     25 H2A1        2.0940    0.6400   -1.7040 hc        1 PL2      0.026367
     26 H2A2        0.9340   -0.6670   -2.1810 hc        1 PL2      0.026367
     27 H2A3        2.5160   -1.1010   -1.4070 hc        1 PL2      0.026367
     28 HO3         3.4730    0.4570    0.1000 ho        1 PL2      0.388000
     29 H4A1        2.9050    1.1700    3.3230 h1        1 PL2      0.103200
     30 H4A2        1.6720    0.4540    4.4890 h1        1 PL2      0.103200
     31 H6         -1.8580   -0.3520    1.4200 h4        1 PL2      0.008100
     32 HN          3.9500   -0.8940    3.1560 hn        1 PL2      0.320800
     33 HA1         2.7610   -0.6620    5.8450 h1        1 PL2      0.081200
     34 HA2         4.4830   -0.2610    5.3670 h1        1 PL2      0.081200
     35 HG1         5.0220   -1.6470    7.3730 hc        1 PL2      0.064700
     36 HG2         3.3090   -2.1960    7.5580 hc        1 PL2      0.064700
     37 H5M1       -1.8210   -0.1070    3.6240 h1        1 PL2      0.014700
     38 H5M2       -0.4140   -0.9260    4.4660 h1        1 PL2      0.014700
     39 HB1         3.3270   -3.1340    5.2470 hc        1 PL2      0.023200
     40 HB2         5.0530   -2.6360    5.0360 hc        1 PL2      0.023200
     41 HD1         5.7620   -4.0190    6.9440 h1        1 PL2      0.030700
     42 HD2         4.0390   -4.5850    7.1120 h1        1 PL2      0.030700
     43 HNE         4.4020   -3.3510    9.4310 hn        1 PL2      0.411800
     44 HNH2        4.8620   -4.7010   11.3410 hn        1 PL2      0.384400
     45 HH11        6.0450   -7.0440    9.0990 hn        1 PL2      0.387300
     46 HH12        6.1590   -5.9900    7.8280 hn        1 PL2      0.387300
@<TRIPOS>BOND
     1    1    2 ar  
     2    1    9 ar  
     3    2    3 1   
     4    2    4 ar  
     5    3   25 1   
     6    3   26 1   
     7    3   27 1   
     8    4    5 1   
     9    4    6 ar  
    10    5   28 1   
    11    6    7 1   
    12    6    8 ar  
    13    7   11 1   
    14    7   29 1   
    15    7   30 1   
    16    8    9 ar  
    17    8   18 1   
    18    9   31 1   
    19   10   14 1   
    20   10   15 1   
    21   10   16 1   
    22   10   17 1   
    23   11   12 1   
    24   11   32 1   
    25   12   19 1   
    26   12   33 1   
    27   12   34 1   
    28   13   19 1   
    29   13   20 1   
    30   13   35 1   
    31   13   36 1   
    32   17   18 1   
    33   18   37 1   
    34   18   38 1   
    35   19   39 1   
    36   19   40 1   
    37   20   21 1   
    38   20   41 1   
    39   20   42 1   
    40   21   22 1   
    41   21   43 1   
    42   22   23 2   
    43   22   24 1   
    44   23   44 1   
    45   24   45 1   
    46   24   46 1   
@<TRIPOS>SUBSTRUCTURE
     1 PL2         1 TEMP              0 ****  ****    0 ROOT
