@<TRIPOS>MOLECULE
molecule
   51    50     1     0     0
SMALL
bcc


@<TRIPOS>ATOM
      1 C1           0.0000     0.0000     0.0000 c3         1 PL3       0.144400
      2 O1           1.4200     0.0000     0.0000 oh         1 PL3      -0.610800
      3 C2          -0.5200     0.0000     1.4310 c3         1 PL3      -0.082400
      4 C3          -2.0500    -0.0120     1.4920 c3         1 PL3      -0.077400
      5 C4          -2.5490     0.0220     2.9380 c3         1 PL3      -0.077400
      6 C5          -4.0780     0.0400     3.0000 c3         1 PL3      -0.078400
      7 C6          -4.5750     0.0400     4.4470 c3         1 PL3      -0.077400
      8 C7          -6.1040     0.0910     4.5060 c3         1 PL3      -0.078400
      9 C8          -6.6610     0.0710     5.9340 c3         1 PL3      -0.076400
     10 C9          -8.1910     0.0440     5.9870 c3         1 PL3      -0.073400
     11 CA          -8.7480    -0.0500     7.4110 c3         1 PL3      -0.075400
     12 CB         -10.2750    -0.1070     7.5290 c3         1 PL3      -0.073400
     13 CC         -10.8250    -0.2680     8.9490 c3         1 PL3      -0.075400
     14 CD         -12.3510    -0.2630     9.0750 c3         1 PL3      -0.076400
     15 CE         -12.8430    -0.3460    10.5210 c3         1 PL3      -0.076400
     16 CF         -14.3690    -0.4290    10.5830 c3         1 PL3      -0.082400
     17 CG         -14.8630    -0.5510    12.0160 c3         1 PL3      -0.090100
     18 H1C1        -0.3590    -0.8840    -0.5130 h1         1 PL3       0.016700
     19 H1C2        -0.3590     0.8840    -0.5130 h1         1 PL3       0.016700
     20 H2C1        -0.1420    -0.8770     1.9420 hc         1 PL3       0.052200
     21 H2C2        -0.1560     0.8860     1.9370 hc         1 PL3       0.052200
     22 H3C1        -2.4170    -0.9110     1.0120 hc         1 PL3       0.039200
     23 H3C2        -2.4330     0.8530     0.9650 hc         1 PL3       0.039200
     24 H4C1        -2.1650     0.9100     3.4250 hc         1 PL3       0.041700
     25 H4C2        -2.1840    -0.8540     3.4600 hc         1 PL3       0.041700
     26 H5C1        -4.4430     0.9280     2.4990 hc         1 PL3       0.039700
     27 H5C2        -4.4630    -0.8370     2.4930 hc         1 PL3       0.039700
     28 H6C1        -4.2310    -0.8610     4.9410 hc         1 PL3       0.040700
     29 H6C2        -4.1710     0.9030     4.9610 hc         1 PL3       0.040700
     30 H7C1        -6.4390     0.9980     4.0170 hc         1 PL3       0.038200
     31 H7C2        -6.5000    -0.7610     3.9670 hc         1 PL3       0.038200
     32 H8C1        -6.2810    -0.8070     6.4420 hc         1 PL3       0.038700
     33 H8C2        -6.3110     0.9530     6.4560 hc         1 PL3       0.038700
     34 H9C1        -8.5430    -0.8090     5.4200 hc         1 PL3       0.037700
     35 H9C2        -8.5700     0.9480     5.5250 hc         1 PL3       0.037700
     36 HAC1        -8.3990     0.8120     7.9670 hc         1 PL3       0.035700
     37 HAC2        -8.3410    -0.9400     7.8740 hc         1 PL3       0.035700
     38 HBC1       -10.6800     0.8070     7.1120 hc         1 PL3       0.035700
     39 HBC2       -10.6290    -0.9390     6.9330 hc         1 PL3       0.035700
     40 HCC1       -10.4560    -1.2050     9.3500 hc         1 PL3       0.035700
     41 HCC2       -10.4330     0.5390     9.5570 hc         1 PL3       0.035700
     42 HDC1       -12.7330     0.6490     8.6310 hc         1 PL3       0.037700
     43 HDC2       -12.7470    -1.1090     8.5260 hc         1 PL3       0.037700
     44 HEC1       -12.4210    -1.2260    10.9900 hc         1 PL3       0.039700
     45 HEC2       -12.5140     0.5350    11.0590 hc         1 PL3       0.039700
     46 HFC1       -14.7910     0.4640    10.1390 hc         1 PL3       0.038700
     47 HFC2       -14.6990    -1.2940    10.0210 hc         1 PL3       0.038700
     48 HGC1       -14.4590    -1.4520    12.4620 hc         1 PL3       0.033033
     49 HGC2       -15.9450    -0.5990    12.0230 hc         1 PL3       0.033033
     50 HGC3       -14.5360     0.3110    12.5850 hc         1 PL3       0.033033
     51 HO           1.7350     0.0020    -0.8890 ho         1 PL3       0.403000
@<TRIPOS>BOND
     1     1     2 1
     2     1     3 1
     3     3     4 1
     4     4     5 1
     5     5     6 1
     6     6     7 1
     7     7     8 1
     8     8     9 1
     9     9    10 1
    10    10    11 1
    11    11    12 1
    12    12    13 1
    13    13    14 1
    14    14    15 1
    15    15    16 1
    16    16    17 1
    17     1    18 1
    18     1    19 1
    19     3    20 1
    20     3    21 1
    21     4    22 1
    22     4    23 1
    23     5    24 1
    24     5    25 1
    25     6    26 1
    26     6    27 1
    27     7    28 1
    28     7    29 1
    29     8    30 1
    30     8    31 1
    31     9    32 1
    32     9    33 1
    33    10    34 1
    34    10    35 1
    35    11    36 1
    36    11    37 1
    37    12    38 1
    38    12    39 1
    39    13    40 1
    40    13    41 1
    41    14    42 1
    42    14    43 1
    43    15    44 1
    44    15    45 1
    45    16    46 1
    46    16    47 1
    47    17    48 1
    48    17    49 1
    49    17    50 1
    50     2    51 1
@<TRIPOS>SUBSTRUCTURE
     1 PL3         1 TEMP              0 ****  ****    0 ROOT
