@<TRIPOS>MOLECULE
PL3
   51    50     1     0     0
SMALL
bcc


@<TRIPOS>ATOM
      1 C1         -0.1480    0.1270    0.0910 c3        1 PL3      0.131400
      2 O1          1.2710    0.1320    0.1350 oh        1 PL3     -0.601800
      3 C2         -0.6380    0.0770    1.5280 c3        1 PL3     -0.084400
      4 C3         -2.1490    0.0680    1.5750 c3        1 PL3     -0.078400
      5 C4         -2.6500    0.0180    3.0030 c3        1 PL3     -0.078400
      6 C5         -4.1630    0.0090    3.0540 c3        1 PL3     -0.079400
      7 C6         -4.6630   -0.0420    4.4810 c3        1 PL3     -0.079400
      8 C7         -6.1760   -0.0520    4.5330 c3        1 PL3     -0.079400
      9 C8         -6.6770   -0.1050    5.9600 c3        1 PL3     -0.079400
     10 C9         -8.1900   -0.1150    6.0120 c3        1 PL3     -0.079400
     11 CA         -8.6900   -0.1710    7.4400 c3        1 PL3     -0.079400
     12 CB        -10.2020   -0.1820    7.4920 c3        1 PL3     -0.079400
     13 CC        -10.7020   -0.2390    8.9200 c3        1 PL3     -0.079400
     14 CD        -12.2150   -0.2510    8.9720 c3        1 PL3     -0.079400
     15 CE        -12.7150   -0.3100   10.4000 c3        1 PL3     -0.079400
     16 CF        -14.2280   -0.3220   10.4540 c3        1 PL3     -0.080400
     17 CG        -14.7300   -0.3820   11.8730 c3        1 PL3     -0.092100
     18 H1C1       -0.5090   -0.7690   -0.4810 h1        1 PL3      0.019700
     19 H1C2       -0.5180    1.0560   -0.4210 h1        1 PL3      0.019700
     20 H2C1       -0.2370    0.9640    2.0860 hc        1 PL3      0.055700
     21 H2C2       -0.2280   -0.8400    2.0260 hc        1 PL3      0.055700
     22 H3C1       -2.5400   -0.8180    1.0090 hc        1 PL3      0.039700
     23 H3C2       -2.5490    0.9870    1.0690 hc        1 PL3      0.039700
     24 H4C1       -2.2590    0.9040    3.5690 hc        1 PL3      0.041700
     25 H4C2       -2.2510   -0.9000    3.5090 hc        1 PL3      0.041700
     26 H5C1       -4.5620    0.9280    2.5480 hc        1 PL3      0.039700
     27 H5C2       -4.5530   -0.8760    2.4860 hc        1 PL3      0.039700
     28 H6C1       -4.2640   -0.9610    4.9870 hc        1 PL3      0.039700
     29 H6C2       -4.2730    0.8430    5.0490 hc        1 PL3      0.039700
     30 H7C1       -6.5660   -0.9370    3.9640 hc        1 PL3      0.039700
     31 H7C2       -6.5760    0.8670    4.0280 hc        1 PL3      0.039700
     32 H8C1       -6.2870    0.7800    6.5290 hc        1 PL3      0.039700
     33 H8C2       -6.2770   -1.0240    6.4650 hc        1 PL3      0.039700
     34 H9C1       -8.5790   -1.0000    5.4420 hc        1 PL3      0.039700
     35 H9C2       -8.5890    0.8040    5.5090 hc        1 PL3      0.039700
     36 HAC1       -8.3000    0.7140    8.0100 hc        1 PL3      0.039700
     37 HAC2       -8.2890   -1.0900    7.9430 hc        1 PL3      0.039700
     38 HBC1      -10.6030    0.7380    6.9900 hc        1 PL3      0.039700
     39 HBC2      -10.5920   -1.0650    6.9210 hc        1 PL3      0.039700
     40 HCC1      -10.3130    0.6440    9.4910 hc        1 PL3      0.039700
     41 HCC2      -10.3020   -1.1590    9.4220 hc        1 PL3      0.039700
     42 HDC1      -12.6050   -1.1340    8.4010 hc        1 PL3      0.039700
     43 HDC2      -12.6160    0.6700    8.4710 hc        1 PL3      0.039700
     44 HEC1      -12.3140   -1.2300   10.9010 hc        1 PL3      0.039700
     45 HEC2      -12.3260    0.5730   10.9720 hc        1 PL3      0.039700
     46 HFC1      -14.6150   -1.2050    9.8800 hc        1 PL3      0.038700
     47 HFC2      -14.6270    0.5990    9.9510 hc        1 PL3      0.038700
     48 HGC1      -14.3630   -1.3050   12.3830 hc        1 PL3      0.032700
     49 HGC2      -15.8470   -0.3890   11.8900 hc        1 PL3      0.032700
     50 HGC3      -14.3750    0.5030   12.4550 hc        1 PL3      0.032700
     51 HO          1.5730    0.1650   -0.7800 ho        1 PL3      0.398000
@<TRIPOS>BOND
     1    1    2 1   
     2    1    3 1   
     3    1   18 1   
     4    1   19 1   
     5    2   51 1   
     6    3    4 1   
     7    3   20 1   
     8    3   21 1   
     9    4    5 1   
    10    4   22 1   
    11    4   23 1   
    12    5    6 1   
    13    5   24 1   
    14    5   25 1   
    15    6    7 1   
    16    6   26 1   
    17    6   27 1   
    18    7    8 1   
    19    7   28 1   
    20    7   29 1   
    21    8    9 1   
    22    8   30 1   
    23    8   31 1   
    24    9   10 1   
    25    9   32 1   
    26    9   33 1   
    27   10   11 1   
    28   10   34 1   
    29   10   35 1   
    30   11   12 1   
    31   11   36 1   
    32   11   37 1   
    33   12   13 1   
    34   12   38 1   
    35   12   39 1   
    36   13   14 1   
    37   13   40 1   
    38   13   41 1   
    39   14   15 1   
    40   14   42 1   
    41   14   43 1   
    42   15   16 1   
    43   15   44 1   
    44   15   45 1   
    45   16   17 1   
    46   16   46 1   
    47   16   47 1   
    48   17   48 1   
    49   17   49 1   
    50   17   50 1   
@<TRIPOS>SUBSTRUCTURE
     1 PL3         1 TEMP              0 ****  ****    0 ROOT
