@<TRIPOS>MOLECULE
PL4
   49    49     1     0     0
SMALL
bcc


@<TRIPOS>ATOM
      1 CB           0.0000     0.0000     0.0000 c3         1 PL4      -0.028400
      2 CBA          3.5710    -0.0000    -1.4410 c3         1 PL4       0.008500
      3 N           -0.1220    -1.2550     2.0990 nz         1 PL4      -0.085600
      4 OAI          4.4590     0.3070     5.7240 o          1 PL4      -0.730500
      5 PBB          3.9940     1.5190     5.0150 p5         1 PL4       0.593900
      6 OAJ          2.4310     1.3690     4.6620 o          1 PL4      -0.730500
      7 OAE          4.1590     2.3660     6.3740 o          1 PL4      -0.730500
      8 OAS          4.7440     2.2840     3.8120 os         1 PL4      -0.441200
      9 CAW          5.6210     2.7010     1.6200 ca         1 PL4      -0.122600
     10 CAK          6.0700     3.9050     2.1290 ca         1 PL4       0.386200
     11 NAQ          6.7300     4.7580     1.3690 nb         1 PL4      -0.607000
     12 CAV          6.9870     4.5020     0.1020 ca         1 PL4       0.254600
     13 CAX          6.5690     3.3140    -0.4810 ca         1 PL4       0.001800
     14 OAH          6.8370     3.0560    -1.7880 oh         1 PL4      -0.472100
     15 CAY          5.8760     2.3900     0.2940 ca         1 PL4      -0.117300
     16 NAR          4.0600     1.2550    -0.8560 n7         1 PL4      -0.589200
     17 CAU          4.0740    -0.1240    -2.8570 c          1 PL4       0.960600
     18 OAG          3.7500    -1.1990    -3.5930 o          1 PL4      -0.905800
     19 OAD          4.7680     0.7440    -3.3300 o          1 PL4      -0.905800
     20 CAN          2.0410    -0.0000    -1.4430 c3         1 PL4       0.004600
     21 CAL          1.5310     0.0000     0.0000 c3         1 PL4      -0.060400
     22 CA          -0.5100     0.0000     1.4420 c3         1 PL4      -0.177500
     23 C           -2.0120     0.1240     1.4430 c          1 PL4       0.973600
     24 O           -2.6990    -0.8580     1.5950 o          1 PL4      -0.862800
     25 OXT         -2.5870     1.3260     1.2750 o          1 PL4      -0.862800
     26 HB          -0.3610    -0.8840    -0.5110 hc         1 PL4       0.033700
     27 HBA         -0.3610     0.8840    -0.5110 hc         1 PL4       0.033700
     28 HAA          7.1670     5.7610    -1.6060 hc         1 PL4      -0.009300
     29 HAAA         8.6970     5.0900    -1.0220 hc         1 PL4      -0.009300
     30 HAAB         7.9120     6.4050    -0.1370 hc         1 PL4      -0.009300
     31 HBAA         3.9310    -0.8370    -0.8550 h1         1 PL4       0.025700
     32 HN          -0.8690    -1.7300     2.5650 hn         1 PL4       0.263800
     33 HNA          0.5230    -1.8170     1.5790 hn         1 PL4       0.263800
     34 HAP          4.9340     0.7060     2.1670 h1         1 PL4      -0.007300
     35 HAPA         3.8570     1.9260     2.1630 h1         1 PL4      -0.007300
     36 HAK          5.8780     4.1510     3.1660 h4         1 PL4       0.032100
     37 HOAH         7.7380     2.7940    -1.8790 ho         1 PL4       0.374000
     38 HAO          6.0890     0.7780    -1.0810 h1         1 PL4       0.016700
     39 HAOA         5.3840     0.3260     0.4780 h1         1 PL4       0.016700
     40 HNAR         4.0790     1.9660    -1.5600 hn         1 PL4       0.283800
     41 HAN          1.6800     0.8840    -1.9530 hc         1 PL4       0.016700
     42 HANA         1.6800    -0.8850    -1.9530 hc         1 PL4       0.016700
     43 HAL          1.8920     0.8850     0.5110 hc         1 PL4       0.028200
     44 HALA         1.8920    -0.8840     0.5110 hc         1 PL4       0.028200
     45 HA          -0.0790     0.8370     1.9770 hx         1 PL4       0.132700
     46 CAO          5.4080     1.0840    -0.2960 c3         1 PL4       0.199100
     47 CAA          7.7440     5.5100    -0.7240 c3         1 PL4      -0.017400
     48 HN3          0.3010    -0.5200     2.6310 hn         1 PL4       0.263800
     49 CAP          4.8690     1.7360     2.4990 c3         1 PL4       0.277700
@<TRIPOS>BOND
     1     1    21 1   
     2     1    22 1   
     3     1    26 1   
     4     1    27 1   
     5     2    16 1   
     6     2    17 1   
     7     2    20 1   
     8     2    31 1   
     9     3    22 1   
    10     3    32 1   
    11     3    33 1   
    12     3    48 1   
    13     4     5 1   
    14     5     6 1   
    15     5     7 1   
    16     5     8 1   
    17     8    49 1   
    18     9    10 ar  
    19     9    15 ar  
    20     9    49 1   
    21    10    11 ar  
    22    10    36 1   
    23    11    12 ar  
    24    12    13 ar  
    25    12    47 1   
    26    13    14 1   
    27    13    15 ar  
    28    14    37 1   
    29    15    46 1   
    30    16    40 1   
    31    16    46 1   
    32    17    18 1   
    33    17    19 1   
    34    20    21 1   
    35    20    41 1   
    36    20    42 1   
    37    21    43 1   
    38    21    44 1   
    39    22    23 1   
    40    22    45 1   
    41    23    24 1   
    42    23    25 1   
    43    28    47 1   
    44    29    47 1   
    45    30    47 1   
    46    34    49 1   
    47    35    49 1   
    48    38    46 1   
    49    39    46 1   
@<TRIPOS>SUBSTRUCTURE
     1 PL4         1 TEMP              0 ****  ****    0 ROOT
