@<TRIPOS>MOLECULE
PL5
   47    48     1     0     0
SMALL
bcc


@<TRIPOS>ATOM
      1 OAI          0.0000     0.0000     0.0000 o          1 PL5      -0.756500
      2 PBB          1.6100     0.0000     0.0000 p5         1 PL5       0.906500
      3 OAJ          2.1470     0.0000     1.5170 o          1 PL5      -0.756500
      4 OAE          2.1040    -1.2080    -0.6990 o          1 PL5      -0.756500
      5 OAS          2.1460     1.3150    -0.7590 os         1 PL5      -0.649000
      6 CAP          3.5320     1.5550    -1.0170 c3         1 PL5       0.160000
      7 CAW          3.6880     2.8680    -1.7390 c2         1 PL5       0.012000
      8 CAL          2.5830     3.6360    -2.0430 c2         1 PL5      -0.103000
      9 NAR          2.7070     4.7870    -2.6750 n2         1 PL5      -0.053000
     10 CAV          3.8780     5.2610    -3.0450 c2         1 PL5      -0.194000
     11 CAA          3.9520     6.5840    -3.7640 c3         1 PL5      -0.043000
     12 CAX          5.0450     4.5580    -2.7810 c2         1 PL5       0.034000
     13 OAH          6.2510     5.0510    -3.1640 oh         1 PL5      -0.235000
     14 CAY          4.9580     3.3290    -2.1060 c3         1 PL5      -0.201000
     15 CAK          6.1690     2.5450    -1.7980 c2         1 PL5      -0.383000
     16 NAQ          7.3330     2.9880    -2.1460 n2         1 PL5       0.022000
     17 CBA          8.5350     2.2100    -1.8390 c3         1 PL5      -0.100000
     18 CAU          9.4500     3.0240    -0.9610 c2         1 PL5       0.417000
     19 OAG         10.6210     2.5090    -0.5510 o          1 PL5      -0.630000
     20 OAD          9.1310     4.1390    -0.6250 o          1 PL5      -0.630000
     21 CAO          9.2590     1.8550    -3.1400 c3         1 PL5      -0.085000
     22 CAM          8.3780     0.9270    -3.9780 c3         1 PL5      -0.139000
     23 CB           9.1010     0.5730    -5.2780 c3         1 PL5      -0.102000
     24 CA           8.2200    -0.3560    -6.1150 c3         1 PL5      -0.342000
     25 C            8.8780    -0.6060    -7.4480 c2         1 PL5       0.390000
     26 O            9.4900    -1.6300    -7.6370 o          1 PL5      -0.580500
     27 OXT          8.7840     0.3100    -8.4260 o          1 PL5      -0.580500
     28 N            8.0440    -1.6320    -5.4100 nz         1 PL5       0.820000
     29 HAP          3.9280     0.7550    -1.6320 h1         1 PL5       0.052000
     30 HAPA         4.0730     1.5910    -0.0800 h1         1 PL5       0.052000
     31 HAL          1.5970     3.2880    -1.7590 h4         1 PL5       0.175000
     32 HAA          2.9500     6.9300    -3.9880 hc         1 PL5       0.032000
     33 HAAA         4.5070     6.4630    -4.6860 hc         1 PL5       0.032000
     34 HAAB         4.4520     7.3090    -3.1340 hc         1 PL5       0.032000
     35 HOAH         6.4270     5.8500    -2.6950 ho         1 PL5       0.203000
     36 HAK          5.7010     2.5900    -2.7740 DU         1 PL5       0.324000
     37 HBA          8.2550     1.3000    -1.3230 h1         1 PL5       0.075000
     38 HAO         10.1930     1.3570    -2.9100 hc         1 PL5       0.066000
     39 HAOA         9.4620     2.7610    -3.6990 hc         1 PL5       0.066000
     40 HAM          7.4450     1.4260    -4.2080 hc         1 PL5       0.051000
     41 HAMA         8.1750     0.0210    -3.4190 hc         1 PL5       0.051000
     42 HB          10.0350     0.0740    -5.0470 hc         1 PL5       0.084500
     43 HBB          9.3040     1.4780    -5.8360 hc         1 PL5       0.084500
     44 HA           7.2530     0.1070    -6.2710 hx         1 PL5       0.133000
     45 HN           7.0870    -1.7320    -5.1340 hn         1 PL5       0.014667
     46 HNA          8.2960    -2.3870    -6.0170 hn         1 PL5       0.014667
     47 HN3          8.6290    -1.6480    -4.5970 hn         1 PL5       0.014667
@<TRIPOS>BOND
     1     1     2 1   
     2     2     3 1   
     3     2     4 1   
     4     2     5 1   
     5     5     6 1   
     6     6     7 1   
     7     6    29 1   
     8     6    30 1   
     9     7     8 1   
    10     7    14 1   
    11     8     9 1   
    12     8    31 1   
    13     9    10 1   
    14    10    11 1   
    15    10    12 1   
    16    11    32 1   
    17    11    33 1   
    18    11    34 1   
    19    12    13 1   
    20    12    14 1   
    21    13    35 1   
    22    14    15 1   
    23    14    36 1   
    24    15    16 1   
    25    15    36 1   
    26    16    17 1   
    27    17    18 1   
    28    17    21 1   
    29    17    37 1   
    30    18    19 1   
    31    18    20 1   
    32    21    22 1   
    33    21    38 1   
    34    21    39 1   
    35    22    23 1   
    36    22    40 1   
    37    22    41 1   
    38    23    24 1   
    39    23    42 1   
    40    23    43 1   
    41    24    25 1   
    42    24    28 1   
    43    24    44 1   
    44    25    26 1   
    45    25    27 1   
    46    28    45 1   
    47    28    46 1   
    48    28    47 1   
@<TRIPOS>SUBSTRUCTURE
     1 PL5         1 TEMP              0 ****  ****    0 ROOT
