@<TRIPOS>MOLECULE
molecule
   47    47     1     0     0
SMALL
bcc


@<TRIPOS>ATOM
      1 OAI          0.0000     0.0000     0.0000 o          1 PL5      -0.911500
      2 PBB          1.6100     0.0000     0.0000 p5         1 PL5       1.183900
      3 OAJ          2.1470     0.0000     1.5170 o          1 PL5      -0.911500
      4 OAE          2.1040    -1.2080    -0.6990 o          1 PL5      -0.911500
      5 OAS          2.1460     1.3150    -0.7590 os         1 PL5      -0.583200
      6 CAP          3.5320     1.5550    -1.0170 c3         1 PL5       0.251700
      7 CAW          3.6880     2.8680    -1.7390 ca         1 PL5      -0.143600
      8 CAL          2.5830     3.6360    -2.0430 ca         1 PL5       0.418200
      9 NAR          2.7070     4.7870    -2.6750 nb         1 PL5      -0.712000
     10 CAV          3.8780     5.2610    -3.0450 ca         1 PL5       0.317600
     11 CAA          3.9520     6.5840    -3.7640 c3         1 PL5      -0.126400
     12 CAX          5.0450     4.5580    -2.7810 ca         1 PL5       0.012800
     13 OAH          6.2510     5.0510    -3.1640 oh         1 PL5      -0.485100
     14 CAY          4.9580     3.3290    -2.1060 ca         1 PL5      -0.133900
     15 CAK          6.1690     2.5450    -1.7980 ce         1 PL5       0.429800
     16 NAQ          7.3330     2.9880    -2.1460 n2         1 PL5      -0.542900
     17 CBA          8.5350     2.2100    -1.8390 c3         1 PL5       0.009500
     18 CAU          9.4500     3.0240    -0.9610 c          1 PL5       0.906600
     19 OAG         10.6210     2.5090    -0.5510 o          1 PL5      -0.844800
     20 OAD          9.1310     4.1390    -0.6250 o          1 PL5      -0.844800
     21 CAO          9.2590     1.8550    -3.1400 c3         1 PL5      -0.044400
     22 CAM          8.3780     0.9270    -3.9780 c3         1 PL5      -0.111400
     23 CB           9.1010     0.5730    -5.2780 c3         1 PL5      -0.089400
     24 CA           8.2200    -0.3560    -6.1150 c3         1 PL5      -0.013500
     25 C            8.8780    -0.6060    -7.4480 c          1 PL5       0.878600
     26 O            9.4900    -1.6300    -7.6370 o          1 PL5      -0.805800
     27 OXT          8.7840     0.3100    -8.4260 o          1 PL5      -0.805800
     28 N            8.0440    -1.6320    -5.4100 nz         1 PL5      -0.801600
     29 HAP          3.9280     0.7550    -1.6320 h1         1 PL5       0.034700
     30 HAPA         4.0730     1.5910    -0.0800 h1         1 PL5       0.034700
     31 HAL          1.5970     3.2880    -1.7590 h4         1 PL5       0.072100
     32 HAA          4.4980     6.4600    -4.6910 hc         1 PL5       0.029367
     33 HAAA         2.9500     6.9350    -3.9790 hc         1 PL5       0.029367
     34 HAAB         4.4620     7.3070    -3.1380 hc         1 PL5       0.029367
     35 HOAH         6.4140     5.8650    -2.7160 ho         1 PL5       0.406000
     36 HAK          6.0830     1.5980    -1.2800 h4         1 PL5      -0.016200
     37 HBA          8.2550     1.3000    -1.3230 h1         1 PL5       0.023700
     38 HAO         10.1930     1.3560    -2.9100 hc         1 PL5       0.055200
     39 HAOA         9.4620     2.7610    -3.6990 hc         1 PL5       0.055200
     40 HAM          8.1750     0.0210    -3.4190 hc         1 PL5       0.038200
     41 HAMA         7.4450     1.4260    -4.2080 hc         1 PL5       0.038200
     42 HB           9.3040     1.4780    -5.8360 hc         1 PL5       0.074700
     43 HBB         10.0350     0.0740    -5.0470 hc         1 PL5       0.074700
     44 HA           7.2530     0.1070    -6.2710 hx         1 PL5       0.112700
     45 HN           7.0870    -1.7320    -5.1340 hn         1 PL5       0.440800
     46 HNA          8.6290    -1.6480    -4.5970 hn         1 PL5       0.440800
     47 HN3          8.2970    -2.3870    -6.0170 hn         1 PL5       0.440800
@<TRIPOS>BOND
     1     2     1 1
     2     4     2 1
     3     5     2 1
     4     2     3 1
     5     6     5 1
     6     7     6 1
     7     6    29 1
     8     6    30 1
     9     8     7 ar
    10     7    14 ar
    11     9     8 ar
    12     8    31 1
    13     9    10 ar
    14    11    10 1
    15    10    12 ar
    16    11    32 1
    17    11    33 1
    18    11    34 1
    19    12    14 ar
    20    12    13 1
    21    13    35 1
    22    14    15 1
    23    15    16 2
    24    15    36 1
    25    16    17 1
    26    21    17 1
    27    17    18 1
    28    17    37 1
    29    19    18 1
    30    18    20 1
    31    22    21 1
    32    21    38 1
    33    21    39 1
    34    23    22 1
    35    22    40 1
    36    22    41 1
    37    24    23 1
    38    23    42 1
    39    23    43 1
    40    25    24 1
    41    28    24 1
    42    24    44 1
    43    26    25 1
    44    27    25 1
    45    28    45 1
    46    28    46 1
    47    47    28 1
@<TRIPOS>SUBSTRUCTURE
     1 PL5         1 TEMP              0 ****  ****    0 ROOT
