@<TRIPOS>MOLECULE
molecule
   38    38     1     0     0
SMALL
bcc


@<TRIPOS>ATOM
      1 OAE          0.0000     0.0000     0.0000 o          1 PL6      -0.919833
      2 PAY          1.4800     0.0000     0.0000 p5         1 PL6       1.197900
      3 OAI          2.0180     0.0000     1.5180 o          1 PL6      -0.919833
      4 OAD          2.0170    -1.3150    -0.7590 o          1 PL6      -0.919833
      5 OAQ          2.0170     1.3140    -0.7600 os         1 PL6      -0.594200
      6 CAN          1.6280     1.6570    -2.0910 c3         1 PL6       0.250700
      7 CAU          2.3070     2.9390    -2.4980 ca         1 PL6      -0.149600
      8 CAK          3.1560     3.5890    -1.6260 ca         1 PL6       0.410200
      9 NAO          3.7560     4.7120    -1.9690 nb         1 PL6      -0.735000
     10 CAT          3.5800     5.2670    -3.1510 ca         1 PL6       0.315600
     11 CAA          4.2970     6.5510    -3.4840 c3         1 PL6      -0.120400
     12 CAV          2.7460     4.6840    -4.0930 ca         1 PL6       0.009800
     13 OAH          2.5690     5.2590    -5.3100 oh         1 PL6      -0.483100
     14 CAW          2.0910     3.4840    -3.7690 ca         1 PL6      -0.103900
     15 CAJ          1.1980     2.8200    -4.7380 ce         1 PL6       0.400800
     16 N            1.0110     3.3400    -5.9070 n2         1 PL6      -0.517900
     17 CA           0.1240     2.6820    -6.8690 c3         1 PL6       0.003500
     18 C            0.9030     2.3270    -8.1100 c          1 PL6       0.914600
     19 OXT          0.2910     1.7110    -9.1330 o          1 PL6      -0.871800
     20 O            2.0780     2.5970    -8.1820 o          1 PL6      -0.871800
     21 CB          -1.0190     3.6280    -7.2390 c3         1 PL6      -0.031400
     22 CG          -1.8850     3.8890    -6.0040 c3         1 PL6      -0.188400
     23 CD          -3.0110     4.8210    -6.3690 c          1 PL6       0.897600
     24 OE2         -3.9030     5.1930    -5.4360 o          1 PL6      -0.891300
     25 OE1         -3.1130     5.2340    -7.4990 o          1 PL6      -0.891300
     26 HAN          0.5530     1.7900    -2.1310 h1         1 PL6       0.043700
     27 HANA         1.9190     0.8630    -2.7690 h1         1 PL6       0.043700
     28 HAK          3.3310     3.1700    -0.6420 h4         1 PL6       0.061100
     29 HAA          4.8090     6.9180    -2.6030 hc         1 PL6       0.022367
     30 HAAA         5.0180     6.3680    -4.2710 hc         1 PL6       0.022367
     31 HAAB         3.5780     7.2900    -3.8180 hc         1 PL6       0.022367
     32 HOAH         3.3360     5.1160    -5.8400 ho         1 PL6       0.403000
     33 HAJ          0.6990     1.8970    -4.4700 h4         1 PL6      -0.012200
     34 HA          -0.2810     1.7800    -6.4270 h1         1 PL6       0.024700
     35 HB          -0.6110     4.5640    -7.5980 hc         1 PL6       0.051700
     36 HBA         -1.6250     3.1760    -8.0150 hc         1 PL6       0.051700
     37 HG          -2.2930     2.9530    -5.6450 hc         1 PL6       0.036200
     38 HGA         -1.2790     4.3410    -5.2280 hc         1 PL6       0.036200
@<TRIPOS>BOND
     1     1     2 1
     2     3     2 1
     3     2     5 1
     4     2     4 1
     5     5     6 1
     6     7     6 1
     7     6    26 1
     8     6    27 1
     9    14     7 ar
    10     7     8 ar
    11     8     9 ar
    12     8    28 1
    13    10     9 ar
    14    12    10 ar
    15    10    11 1
    16    11    29 1
    17    11    30 1
    18    11    31 1
    19    13    12 1
    20    14    12 ar
    21    13    32 1
    22    15    14 1
    23    16    15 2
    24    15    33 1
    25    17    16 1
    26    18    17 1
    27    17    21 1
    28    17    34 1
    29    20    18 1
    30    18    19 1
    31    21    22 1
    32    21    35 1
    33    21    36 1
    34    22    23 1
    35    22    37 1
    36    22    38 1
    37    23    25 1
    38    23    24 1
@<TRIPOS>SUBSTRUCTURE
     1 PL6         1 TEMP              0 ****  ****    0 ROOT
