@<TRIPOS>MOLECULE
PL6
   38    39     1     0     0
SMALL
bcc


@<TRIPOS>ATOM
      1 OAE          0.0000     0.0000     0.0000 o          1 PL6      -0.764500
      2 PAY          1.4800     0.0000     0.0000 p5         1 PL6       0.914500
      3 OAI          2.0180     0.0000     1.5180 o          1 PL6      -0.764500
      4 OAD          2.0170    -1.3150    -0.7590 o          1 PL6      -0.764500
      5 OAQ          2.0170     1.3140    -0.7600 os         1 PL6      -0.655000
      6 CAN          1.6280     1.6570    -2.0910 c3         1 PL6       0.162000
      7 CAU          2.3070     2.9390    -2.4980 c2         1 PL6      -0.008000
      8 CAK          3.1560     3.5890    -1.6260 c2         1 PL6      -0.108000
      9 NAO          3.7560     4.7120    -1.9690 n2         1 PL6      -0.087000
     10 CAT          3.5800     5.2670    -3.1510 c2         1 PL6      -0.196000
     11 CAA          4.2970     6.5510    -3.4840 c3         1 PL6      -0.040000
     12 CAV          2.7460     4.6840    -4.0930 c2         1 PL6       0.021000
     13 OAH          2.5690     5.2590    -5.3100 oh         1 PL6      -0.208000
     14 CAW          2.0910     3.4840    -3.7690 c3         1 PL6      -0.175000
     15 CAJ          1.1980     2.8200    -4.7380 c2         1 PL6      -0.352000
     16 N            1.0110     3.3400    -5.9070 n2         1 PL6       0.076000
     17 CA           0.1240     2.6820    -6.8690 c3         1 PL6      -0.114000
     18 C            0.9030     2.3270    -8.1100 c2         1 PL6       0.424000
     19 OXT          0.2910     1.7110    -9.1330 o          1 PL6      -0.661500
     20 O            2.0780     2.5970    -8.1820 o          1 PL6      -0.661500
     21 CB          -1.0190     3.6280    -7.2390 c3         1 PL6      -0.066000
     22 CG          -1.8850     3.8890    -6.0040 c3         1 PL6      -0.176000
     23 CD          -3.0110     4.8210    -6.3690 c2         1 PL6       0.412000
     24 OE2         -3.9030     5.1930    -5.4360 o          1 PL6      -0.677000
     25 OE1         -3.1130     5.2340    -7.4990 o          1 PL6      -0.677000
     26 HAN          0.5530     1.7900    -2.1310 h1         1 PL6       0.056500
     27 HANA         1.9190     0.8630    -2.7690 h1         1 PL6       0.056500
     28 HAK          3.3320     3.1710    -0.6420 h4         1 PL6       0.165000
     29 HAA          5.0230     6.3670    -4.2660 hc         1 PL6       0.025667
     30 HAAA         3.5790     7.2870    -3.8250 hc         1 PL6       0.025667
     31 HAAB         4.8020     6.9220    -2.6010 hc         1 PL6       0.025667
     32 HOAH         3.3690     5.1980    -5.8060 ho         1 PL6       0.175000
     33 HAJ          2.2800     2.7730    -4.7710 DU         1 PL6       0.287000
     34 HA          -0.2810     1.7800    -6.4270 h1         1 PL6       0.079000
     35 HB          -0.6110     4.5640    -7.5980 hc         1 PL6       0.063000
     36 HBA         -1.6250     3.1760    -8.0150 hc         1 PL6       0.063000
     37 HG          -2.2930     2.9530    -5.6450 hc         1 PL6       0.061000
     38 HGA         -1.2790     4.3410    -5.2280 hc         1 PL6       0.061000
@<TRIPOS>BOND
     1     1     2 1   
     2     2     3 1   
     3     2     4 1   
     4     2     5 1   
     5     5     6 1   
     6     6     7 1   
     7     6    26 1   
     8     6    27 1   
     9     7     8 1   
    10     7    14 1   
    11     8     9 1   
    12     8    28 1   
    13     9    10 1   
    14    10    11 1   
    15    10    12 1   
    16    11    29 1   
    17    11    30 1   
    18    11    31 1   
    19    12    13 1   
    20    12    14 1   
    21    13    32 1   
    22    14    15 1   
    23    14    33 1   
    24    15    16 1   
    25    15    33 1   
    26    16    17 1   
    27    17    18 1   
    28    17    21 1   
    29    17    34 1   
    30    18    19 1   
    31    18    20 1   
    32    21    22 1   
    33    21    35 1   
    34    21    36 1   
    35    22    23 1   
    36    22    37 1   
    37    22    38 1   
    38    23    24 1   
    39    23    25 1   
@<TRIPOS>SUBSTRUCTURE
     1 PL6         1 TEMP              0 ****  ****    0 ROOT
