@<TRIPOS>MOLECULE
PL7
   42    42     1     0     0
SMALL
bcc


@<TRIPOS>ATOM
      1 O16          0.0000     0.0000     0.0000 o          1 PL7      -0.941300
      2 C9           1.3590     0.0000     0.0000 c          1 PL7       1.005600
      3 O17          2.0240     0.0000     1.0260 o          1 PL7      -0.941300
      4 C10          1.9090     0.0040    -1.4110 c3         1 PL7      -0.131400
      5 C11          3.4330     0.0960    -1.4580 c3         1 PL7      -0.053700
      6 C8           3.9300     0.1500    -2.8850 ce         1 PL7       0.356300
      7 C12          4.3260    -1.1530    -3.5130 c          1 PL7       0.928300
      8 O19          3.5390    -1.8460    -4.1240 o          1 PL7      -0.911300
      9 O18          5.6320    -1.3650    -3.3080 o          1 PL7      -0.911300
     10 N1           4.0220     1.1940    -3.6440 n2         1 PL7      -0.488200
     11 O13          3.6060     2.3460    -2.9660 os         1 PL7      -0.183300
     12 C5           3.7320     3.4500    -3.8480 c3         1 PL7       0.218400
     13 C3           3.2840     4.7150    -3.1330 c3         1 PL7      -0.121300
     14 C4           1.8310     4.6080    -2.7200 c          1 PL7       0.970600
     15 O14          1.4300     4.1000    -1.6810 o          1 PL7      -0.878800
     16 N2           4.0550     4.9520    -1.9370 ns         1 PL7      -0.123900
     17 C6           5.2100     5.7190    -1.9180 c          1 PL7       0.553100
     18 O15          5.7100     6.2800    -2.8900 o          1 PL7      -0.684100
     19 C7           5.8100     5.7970    -0.5300 c3         1 PL7       0.103400
     20 O34          6.9750     6.5940    -0.5340 os         1 PL7      -0.286900
     21 C35          7.9480     6.2870     0.3870 ca         1 PL7       0.162100
     22 C40          7.5850     5.7280     1.6040 ca         1 PL7      -0.159000
     23 C39          8.5730     5.4160     2.5390 ca         1 PL7      -0.077000
     24 C38          9.9140     5.6680     2.2470 ca         1 PL7      -0.166000
     25 C37         10.2670     6.2290     1.0200 ca         1 PL7      -0.077000
     26 C36          9.2790     6.5410     0.0860 ca         1 PL7      -0.159000
     27 OXT          0.9950     5.1030    -3.6700 o          1 PL7      -0.878800
     28 H101         1.6010    -0.9090    -1.9070 hc         1 PL7       0.031200
     29 H102         1.4920     0.8490    -1.9450 hc         1 PL7       0.031200
     30 H111         3.8570    -0.7700    -0.9660 hc         1 PL7       0.014200
     31 H112         3.7510     0.9920    -0.9380 hc         1 PL7       0.014200
     32 H5C1         4.7660     3.5530    -4.1540 h1         1 PL7      -0.007800
     33 H5C2         3.1110     3.2880    -4.7210 h1         1 PL7      -0.007800
     34 H3           3.4000     5.5590    -3.8030 h1         1 PL7       0.048700
     35 H2           3.7400     4.5440    -1.0790 hn         1 PL7       0.199500
     36 H7C1         6.0610     4.7990    -0.1930 h1         1 PL7       0.018200
     37 H7C2         5.0840     6.2300     0.1480 h1         1 PL7       0.018200
     38 H40          6.5430     5.5340     1.8270 ha         1 PL7       0.123500
     39 H36          9.5490     6.9770    -0.8680 ha         1 PL7       0.123500
     40 H39          8.2990     4.9790     3.4920 ha         1 PL7       0.090000
     41 H38         10.6810     5.4260     2.9720 ha         1 PL7       0.088000
     42 H37         11.3080     6.4240     0.7940 ha         1 PL7       0.090000
@<TRIPOS>BOND
     1     1     2 1   
     2     2     3 1   
     3     2     4 1   
     4     4     5 1   
     5     4    28 1   
     6     4    29 1   
     7     5     6 1   
     8     5    30 1   
     9     5    31 1   
    10     6     7 1   
    11     6    10 2   
    12     7     8 1   
    13     7     9 1   
    14    10    11 1   
    15    11    12 1   
    16    12    13 1   
    17    12    32 1   
    18    12    33 1   
    19    13    14 1   
    20    13    16 1   
    21    13    34 1   
    22    14    15 1   
    23    14    27 1   
    24    16    17 1   
    25    16    35 1   
    26    17    18 2   
    27    17    19 1   
    28    19    20 1   
    29    19    36 1   
    30    19    37 1   
    31    20    21 1   
    32    21    22 ar  
    33    21    26 ar  
    34    22    23 ar  
    35    22    38 1   
    36    23    24 ar  
    37    23    40 1   
    38    24    25 ar  
    39    24    41 1   
    40    25    26 ar  
    41    25    42 1   
    42    26    39 1   
@<TRIPOS>SUBSTRUCTURE
     1 PL7         1 TEMP              0 ****  ****    0 ROOT
