@<TRIPOS>MOLECULE
PL8
   47    48     1     0     0
SMALL
bcc


@<TRIPOS>ATOM
      1 CAA          0.0000     0.0000     0.0000 c3         1 PL8      -0.020400
      2 OAB          3.8420    -0.5340    -6.1040 o          1 PL8      -0.719500
      3 OAC          8.3530    -1.1440    -1.5150 o          1 PL8      -0.746833
      4 OAD          7.8700     2.6580   -11.5210 oh         1 PL8      -0.584800
      5 OAE          0.6600     0.0010    -2.7470 oh         1 PL8      -0.506100
      6 OAF          8.5130    -0.1460     0.7980 o          1 PL8      -0.746833
      7 OAG          8.4100     1.3730    -1.3450 o          1 PL8      -0.746833
      8 CAH          4.1090     3.2130    -7.3620 cc         1 PL8      -0.090000
      9 CAI          3.8130     2.9720    -6.0130 cc         1 PL8      -0.238000
     10 CAJ          3.6770     0.0000     0.0000 ca         1 PL8       0.409200
     11 CAK          6.4540     2.6890   -11.3310 c3         1 PL8       0.224400
     12 CAL          6.1300     2.4140    -9.8620 c3         1 PL8      -0.044400
     13 CAN          3.3280     0.0270    -3.7630 c3         1 PL8       0.204100
     14 CAO          5.4570     0.0060    -1.7640 c3         1 PL8       0.312700
     15 NAP          3.4240     1.4120    -4.2270 nu         1 PL8      -0.316000
     16 NAQ          4.1980     0.8920    -7.7740 ns         1 PL8       0.095900
     17 NAR          2.4140     0.0000     0.3820 nb         1 PL8      -0.590000
     18 OAS          6.2940    -0.0020    -0.6060 os         1 PL8      -0.474200
     19 CAT          1.4250     0.0010    -0.4890 ca         1 PL8       0.271600
     20 CAU          4.2950     2.1770    -8.2110 cd         1 PL8      -0.267600
     21 CAV          4.0120     0.0060    -1.3410 ca         1 PL8      -0.123600
     22 CAW          1.6830     0.0010    -1.8530 ca         1 PL8      -0.008200
     23 CAX          3.7210     1.6820    -5.5700 cd         1 PL8      -0.021200
     24 CAY          3.0030     0.0140    -2.2910 ca         1 PL8      -0.164300
     25 CAZ          3.9260     0.6230    -6.4820 c          1 PL8       0.578700
     26 PBA          7.9020    -0.0050    -0.6850 p5         1 PL8       0.660900
     27 H1AA        -0.4730    -0.9370    -0.2670 hc         1 PL8      -0.004633
     28 H2AA        -0.5400     0.8200    -0.4590 hc         1 PL8      -0.004633
     29 H3AA        -0.0120     0.1170     1.0770 hc         1 PL8      -0.004633
     30 HOAD         8.0700     2.8410   -12.4240 ho         1 PL8       0.378000
     31 HOAE         0.3180    -0.8730    -2.8340 ho         1 PL8       0.386000
     32 HAH          4.1860     4.2310    -7.7260 ha         1 PL8       0.100000
     33 HAI          3.6640     3.7980    -5.3280 ha         1 PL8       0.118000
     34 HAJ          4.4610    -0.0010     0.7470 h4         1 PL8       0.042100
     35 H1AK         6.0740     3.6650   -11.6080 h1         1 PL8      -0.024800
     36 H2AK         5.9900     1.9310   -11.9510 h1         1 PL8      -0.024800
     37 H1AL         6.5940     3.1710    -9.2420 hc         1 PL8       0.036700
     38 H2AL         6.5090     1.4380    -9.5850 hc         1 PL8       0.036700
     39 H1AM         4.1490     1.6910   -10.2780 hc         1 PL8       0.006700
     40 H2AM         4.2340     3.4240    -9.9350 hc         1 PL8       0.006700
     41 H1AN         4.2730    -0.4760    -3.9280 h1         1 PL8       0.050700
     42 H2AN         2.5450    -0.4840    -4.3100 h1         1 PL8       0.050700
     43 H1AO         5.6590    -0.8750    -2.3610 h1         1 PL8      -0.001800
     44 H2AO         5.6620     0.8930    -2.3510 h1         1 PL8      -0.001800
     45 HNAP         3.2400     2.1660    -3.5950 hn         1 PL8       0.294800
     46 HNAQ         4.3380     0.1390    -8.4170 hn         1 PL8       0.155500
     47 CAM          4.6140     2.4480    -9.6580 c3         1 PL8       0.055800
@<TRIPOS>BOND
     1     1    19 1   
     2     1    27 1   
     3     1    28 1   
     4     1    29 1   
     5     2    25 2   
     6     3    26 1   
     7     4    11 1   
     8     4    30 1   
     9     5    22 1   
    10     5    31 1   
    11     6    26 1   
    12     7    26 1   
    13     8     9 1   
    14     8    20 2   
    15     8    32 1   
    16     9    23 2   
    17     9    33 1   
    18    10    17 ar  
    19    10    21 ar  
    20    10    34 1   
    21    11    12 1   
    22    11    35 1   
    23    11    36 1   
    24    12    37 1   
    25    12    38 1   
    26    12    47 1   
    27    13    15 1   
    28    13    24 1   
    29    13    41 1   
    30    13    42 1   
    31    14    18 1   
    32    14    21 1   
    33    14    43 1   
    34    14    44 1   
    35    15    23 1   
    36    15    45 1   
    37    16    20 1   
    38    16    25 1   
    39    16    46 1   
    40    17    19 ar  
    41    18    26 1   
    42    19    22 ar  
    43    20    47 1   
    44    21    24 ar  
    45    22    24 ar  
    46    23    25 1   
    47    39    47 1   
    48    40    47 1   
@<TRIPOS>SUBSTRUCTURE
     1 PL8         1 TEMP              0 ****  ****    0 ROOT
