@<TRIPOS>MOLECULE
molecule
  135   135     1     0     0
SMALL
bcc


@<TRIPOS>ATOM
      1 C2           0.0000     0.0000     0.0000 cc         1 PL9      -0.192200
      2 C3           1.3350     0.0000     0.0000 cd         1 PL9      -0.122400
      3 C4           2.0770     0.0000     1.2850 c          1 PL9       0.546500
      4 C5           1.2960     0.0050     2.5620 cc         1 PL9      -0.142400
      5 C6          -0.0500    -0.0100     2.5440 cd         1 PL9      -0.140400
      6 C1          -0.7850    -0.0030     1.2460 c          1 PL9       0.552500
      7 C7           2.1370     0.0020    -1.2560 c3         1 PL9       0.000000
      8 C8           2.5410     1.3870    -1.6730 c2         1 PL9      -0.175200
      9 C9           2.2940     1.9950    -2.8500 c2         1 PL9      -0.106400
     10 C10          2.7470     3.3970    -3.1680 c3         1 PL9      -0.054900
     11 C11          1.5650     1.3300    -4.0090 c3         1 PL9      -0.065200
     12 C12          2.2990     1.1150    -5.3400 c3         1 PL9      -0.029200
     13 C13          3.5530     0.2970    -5.2010 c2         1 PL9      -0.171200
     14 C14          3.6630    -1.0460    -5.2150 c2         1 PL9      -0.124400
     15 C15          5.0130    -1.6940    -5.0630 c3         1 PL9      -0.054900
     16 C16          2.4930    -2.0040    -5.3060 c3         1 PL9      -0.035200
     17 C17          2.5200    -2.9180    -6.5420 c3         1 PL9      -0.035200
     18 C18          1.3380    -3.8440    -6.5960 c2         1 PL9      -0.178200
     19 C19          0.4060    -3.9540    -7.5620 c2         1 PL9      -0.121400
     20 C20         -0.7160    -4.9510    -7.4100 c3         1 PL9      -0.054900
     21 C21          0.4030    -3.1730    -8.8560 c3         1 PL9      -0.035200
     22 C22         -0.4250    -1.8890    -8.7600 c3         1 PL9      -0.033200
     23 C23         -0.4970    -1.1830   -10.0860 c2         1 PL9      -0.177200
     24 C24         -0.0680     0.0560   -10.3960 c2         1 PL9      -0.118400
     25 C25         -0.2660     0.5930   -11.7910 c3         1 PL9      -0.054900
     26 C26          0.6500     0.9910    -9.4460 c3         1 PL9      -0.035200
     27 C27         -0.0860     2.3160    -9.1900 c3         1 PL9      -0.029200
     28 C28         -1.4530     2.1040    -8.5970 c2         1 PL9      -0.170200
     29 C29         -1.7980     1.9820    -7.2990 c2         1 PL9      -0.116400
     30 C30         -3.2090     1.7710    -6.8150 c3         1 PL9      -0.051900
     31 C31         -0.7880     2.0410    -6.1600 c3         1 PL9      -0.046200
     32 C32         -1.0250     3.0870    -5.0570 c3         1 PL9      -0.043200
     33 C33         -0.9470     4.4840    -5.6150 c2         1 PL9      -0.168200
     34 C34         -1.8960     5.4410    -5.6230 c2         1 PL9      -0.120400
     35 C35         -1.7030     6.8130    -6.2160 c3         1 PL9      -0.048900
     36 C36         -3.2890     5.2460    -5.0350 c3         1 PL9      -0.044200
     37 C37         -3.4750     5.5500    -3.5400 c3         1 PL9      -0.032200
     38 C38         -4.8830     5.2640    -3.0940 c2         1 PL9      -0.179200
     39 C39         -5.2890     4.4250    -2.1210 c2         1 PL9      -0.120400
     40 C40         -6.7580     4.2760    -1.8200 c3         1 PL9      -0.055900
     41 C41         -4.3660     3.6060    -1.2430 c3         1 PL9      -0.036200
     42 C42         -4.4080     3.9810     0.2420 c3         1 PL9      -0.034200
     43 C43         -3.3860     3.2560     1.0760 c2         1 PL9      -0.167200
     44 C44         -2.1470     3.6800     1.3860 c2         1 PL9      -0.128400
     45 C45         -1.2460     2.8430     2.2570 c3         1 PL9      -0.058900
     46 C46         -1.5380     4.9610     0.8710 c3         1 PL9      -0.036200
     47 C47         -1.7600     6.1390     1.8220 c3         1 PL9      -0.030200
     48 C48         -1.0750     7.3760     1.3150 c2         1 PL9      -0.183200
     49 C49         -1.6060     8.3540     0.5560 c2         1 PL9      -0.126400
     50 C50         -0.8630     9.5690     0.0820 c3         1 PL9      -0.053900
     51 C51         -3.0500     8.2970     0.1380 c3         1 PL9      -0.053900
     52 C52          2.1430     0.0440     3.8060 c3         1 PL9      -0.047900
     53 C53         -0.9370    -0.0520     3.7590 c3         1 PL9      -0.057900
     54 O1           3.3060    -0.0090     1.2940 o          1 PL9      -0.499100
     55 O2          -2.0120     0.0050     1.1920 o          1 PL9      -0.503100
     56 HC2         -0.5230     0.0020    -0.9480 ha         1 PL9       0.158000
     57 HC71         3.0300    -0.5930    -1.1030 hc         1 PL9       0.067700
     58 HC72         1.5490    -0.4450    -2.0490 hc         1 PL9       0.067700
     59 HC8          3.0950     1.9540    -0.9340 ha         1 PL9       0.125000
     60 H101         2.2060     4.1010    -2.5470 hc         1 PL9       0.043367
     61 H102         2.5520     3.6120    -4.2120 hc         1 PL9       0.043367
     62 H103         3.8090     3.4860    -2.9730 hc         1 PL9       0.043367
     63 H111         0.6840     1.9240    -4.2180 hc         1 PL9       0.050200
     64 H112         1.2310     0.3580    -3.6640 hc         1 PL9       0.050200
     65 H121         1.6300     0.6110    -6.0270 hc         1 PL9       0.046700
     66 H122         2.5580     2.0820    -5.7530 hc         1 PL9       0.046700
     67 H13          4.4680     0.8640    -5.0780 ha         1 PL9       0.118000
     68 H151         4.9100    -2.6160    -4.5030 hc         1 PL9       0.041367
     69 H152         5.4220    -1.9100    -6.0420 hc         1 PL9       0.041367
     70 H153         5.6780    -1.0230    -4.5330 hc         1 PL9       0.041367
     71 H161         1.5760    -1.4270    -5.3260 hc         1 PL9       0.044700
     72 H162         2.4890    -2.6260    -4.4190 hc         1 PL9       0.044700
     73 H171         2.5240    -2.3020    -7.4330 hc         1 PL9       0.047700
     74 H172         3.4270    -3.5090    -6.5200 hc         1 PL9       0.047700
     75 H18          1.2280    -4.4960    -5.7380 ha         1 PL9       0.112000
     76 H201        -0.3090    -5.9110    -7.1170 hc         1 PL9       0.041033
     77 H202        -1.2380    -5.0540    -8.3540 hc         1 PL9       0.041033
     78 H203        -1.4070    -4.6050    -6.6510 hc         1 PL9       0.041033
     79 H211         1.4230    -2.9140    -9.1120 hc         1 PL9       0.046700
     80 H212        -0.0080    -3.7970    -9.6410 hc         1 PL9       0.046700
     81 H221        -1.4290    -2.1390    -8.4370 hc         1 PL9       0.048700
     82 H222         0.0280    -1.2290    -8.0310 hc         1 PL9       0.048700
     83 H23         -0.9740    -1.7460   -10.8790 ha         1 PL9       0.112000
     84 H251        -0.0620    -0.1890   -12.5120 hc         1 PL9       0.039700
     85 H252         0.4100     1.4230   -11.9580 hc         1 PL9       0.039700
     86 H253        -1.2890     0.9320   -11.9060 hc         1 PL9       0.039700
     87 H261         0.7830     0.4820    -8.4990 hc         1 PL9       0.046200
     88 H262         1.6270     1.2140    -9.8580 hc         1 PL9       0.046200
     89 H271        -0.1890     2.8470   -10.1290 hc         1 PL9       0.044700
     90 H272         0.5030     2.9180    -8.5090 hc         1 PL9       0.044700
     91 H28         -2.2580     2.0440    -9.3190 ha         1 PL9       0.115000
     92 H301        -3.6740     0.9780    -7.3890 hc         1 PL9       0.042033
     93 H302        -3.7750     2.6860    -6.9410 hc         1 PL9       0.042033
     94 H303        -3.1950     1.4960    -5.7670 hc         1 PL9       0.042033
     95 H311         0.1870     2.2320    -6.5920 hc         1 PL9       0.042700
     96 H312        -0.7610     1.0650    -5.6900 hc         1 PL9       0.042700
     97 H321        -0.2730     2.9690    -4.2860 hc         1 PL9       0.055700
     98 H322        -2.0060     2.9320    -4.6240 hc         1 PL9       0.055700
     99 H33          0.0030     4.7400    -6.0680 ha         1 PL9       0.110000
    100 H351        -2.2120     6.8690    -7.1700 hc         1 PL9       0.040367
    101 H352        -2.1110     7.5580    -5.5440 hc         1 PL9       0.040367
    102 H353        -0.6450     6.9980    -6.3600 hc         1 PL9       0.040367
    103 H361        -3.5760     4.2150    -5.2000 hc         1 PL9       0.043200
    104 H362        -3.9740     5.8770    -5.5880 hc         1 PL9       0.043200
    105 H371        -3.2520     6.5950    -3.3610 hc         1 PL9       0.047200
    106 H372        -2.7900     4.9380    -2.9660 hc         1 PL9       0.047200
    107 H38         -5.6560     5.8060    -3.6270 ha         1 PL9       0.114000
    108 H401        -6.9360     3.3110    -1.3590 hc         1 PL9       0.040700
    109 H402        -7.3250     4.3460    -2.7400 hc         1 PL9       0.040700
    110 H403        -7.0700     5.0620    -1.1430 hc         1 PL9       0.040700
    111 H411        -4.6380     2.5620    -1.3410 hc         1 PL9       0.047700
    112 H412        -3.3510     3.7320    -1.6010 hc         1 PL9       0.047700
    113 H421        -4.2360     5.0470     0.3350 hc         1 PL9       0.044200
    114 H422        -5.3940     3.7540     0.6290 hc         1 PL9       0.044200
    115 H43         -3.6980     2.2990     1.4770 ha         1 PL9       0.125000
    116 H451        -0.4350     2.4440     1.6590 hc         1 PL9       0.040700
    117 H452        -1.8150     2.0260     2.6850 hc         1 PL9       0.040700
    118 H453        -0.8410     3.4560     3.0520 hc         1 PL9       0.040700
    119 H461        -1.9820     5.1990    -0.0890 hc         1 PL9       0.047200
    120 H462        -0.4730     4.8150     0.7370 hc         1 PL9       0.047200
    121 H471        -2.8220     6.3310     1.9100 hc         1 PL9       0.046200
    122 H472        -1.3620     5.8870     2.7980 hc         1 PL9       0.046200
    123 H48         -0.0350     7.4840     1.5990 ha         1 PL9       0.111000
    124 H501        -1.0210     9.6980    -0.9810 hc         1 PL9       0.040867
    125 H502        -1.2260    10.4430     0.6100 hc         1 PL9       0.040867
    126 H503         0.1960     9.4440     0.2770 hc         1 PL9       0.040867
    127 H511        -3.3510     9.2610    -0.2520 hc         1 PL9       0.040867
    128 H512        -3.6640     8.0460     0.9950 hc         1 PL9       0.040867
    129 H513        -3.1740     7.5420    -0.6290 hc         1 PL9       0.040867
    130 H521         2.8630     0.8500     3.7270 hc         1 PL9       0.055700
    131 H522         2.6660    -0.8980     3.9170 hc         1 PL9       0.055700
    132 H523         1.5100     0.2090     4.6690 hc         1 PL9       0.055700
    133 H531        -0.7390     0.8130     4.3800 hc         1 PL9       0.058700
    134 H532        -1.9750    -0.0450     3.4490 hc         1 PL9       0.058700
    135 H533        -0.7340    -0.9550     4.3220 hc         1 PL9       0.058700
@<TRIPOS>BOND
     1     1     2 2
     2     1     6 1
     3     1    56 1
     4     2     3 1
     5     2     7 1
     6     3     4 1
     7     3    54 2
     8     4     5 2
     9     4    52 1
    10     5     6 1
    11     5    53 1
    12     6    55 2
    13     7     8 1
    14     7    57 1
    15     7    58 1
    16     8     9 2
    17     8    59 1
    18     9    10 1
    19     9    11 1
    20    10    60 1
    21    10    61 1
    22    10    62 1
    23    11    12 1
    24    11    63 1
    25    11    64 1
    26    12    13 1
    27    12    65 1
    28    12    66 1
    29    13    14 2
    30    13    67 1
    31    14    15 1
    32    14    16 1
    33    15    68 1
    34    15    69 1
    35    15    70 1
    36    16    17 1
    37    16    71 1
    38    16    72 1
    39    17    18 1
    40    17    73 1
    41    17    74 1
    42    18    19 2
    43    18    75 1
    44    19    20 1
    45    19    21 1
    46    20    76 1
    47    20    77 1
    48    20    78 1
    49    21    22 1
    50    21    79 1
    51    21    80 1
    52    22    23 1
    53    22    81 1
    54    22    82 1
    55    23    24 2
    56    23    83 1
    57    24    25 1
    58    24    26 1
    59    25    84 1
    60    25    85 1
    61    25    86 1
    62    26    27 1
    63    26    87 1
    64    26    88 1
    65    27    28 1
    66    27    89 1
    67    27    90 1
    68    28    29 2
    69    28    91 1
    70    29    30 1
    71    29    31 1
    72    30    92 1
    73    30    93 1
    74    30    94 1
    75    31    32 1
    76    31    95 1
    77    31    96 1
    78    32    33 1
    79    32    97 1
    80    32    98 1
    81    33    34 2
    82    33    99 1
    83    34    35 1
    84    34    36 1
    85    35   100 1
    86    35   101 1
    87    35   102 1
    88    36    37 1
    89    36   103 1
    90    36   104 1
    91    37    38 1
    92    37   105 1
    93    37   106 1
    94    38    39 2
    95    38   107 1
    96    39    40 1
    97    39    41 1
    98    40   108 1
    99    40   109 1
   100    40   110 1
   101    41    42 1
   102    41   111 1
   103    41   112 1
   104    42    43 1
   105    42   113 1
   106    42   114 1
   107    43    44 2
   108    43   115 1
   109    44    45 1
   110    44    46 1
   111    45   116 1
   112    45   117 1
   113    45   118 1
   114    46    47 1
   115    46   119 1
   116    46   120 1
   117    47    48 1
   118    47   121 1
   119    47   122 1
   120    48    49 2
   121    48   123 1
   122    49    50 1
   123    49    51 1
   124    50   124 1
   125    50   125 1
   126    50   126 1
   127    51   127 1
   128    51   128 1
   129    51   129 1
   130    52   130 1
   131    52   131 1
   132    52   132 1
   133    53   133 1
   134    53   134 1
   135    53   135 1
@<TRIPOS>SUBSTRUCTURE
     1 PL9         1 TEMP              0 ****  ****    0 ROOT
