@<TRIPOS>MOLECULE
PL9
  135   135     1     0     0
SMALL
bcc


@<TRIPOS>ATOM
      1 C2          0.7190   -0.4800    0.1930 cc        1 PL9     -0.198200
      2 C3          1.6920    0.4430    0.2460 cd        1 PL9     -0.112400
      3 C4          1.8760    1.2880    1.4540 c         1 PL9      0.557500
      4 C5          0.8220    1.1940    2.4950 cc        1 PL9     -0.140400
      5 C6         -0.1560    0.2620    2.4310 cd        1 PL9     -0.133400
      6 C1         -0.2260   -0.7010    1.3040 c         1 PL9      0.553500
      7 C7          2.6440    0.6600   -0.8820 c3        1 PL9     -0.014000
      8 C8          2.3490    1.9230   -1.6070 c2        1 PL9     -0.177200
      9 C9          1.7290    2.0150   -2.7930 c2        1 PL9     -0.103400
     10 C10         1.5210    3.3300   -3.4520 c3        1 PL9     -0.063900
     11 C11         1.1880    0.8450   -3.5390 c3        1 PL9     -0.048200
     12 C12         2.2270    0.2280   -4.4630 c3        1 PL9     -0.042200
     13 C13         1.6390   -0.9020   -5.2210 c2        1 PL9     -0.182200
     14 C14         1.9330   -2.1990   -5.0350 c2        1 PL9     -0.110400
     15 C15         2.9120   -2.6690   -4.0230 c3        1 PL9     -0.059900
     16 C16         1.2570   -3.2600   -5.8350 c3        1 PL9     -0.040200
     17 C17         2.2100   -4.0300   -6.7350 c3        1 PL9     -0.042200
     18 C18         2.6440   -3.2320   -7.9050 c2        1 PL9     -0.171200
     19 C19         2.4280   -3.5550   -9.1890 c2        1 PL9     -0.117400
     20 C20         1.6850   -4.7680   -9.6100 c3        1 PL9     -0.058900
     21 C21         2.9510   -2.7000  -10.2950 c3        1 PL9     -0.040200
     22 C22         1.8680   -1.8480  -10.9360 c3        1 PL9     -0.042200
     23 C23         1.6190   -0.5840  -10.2050 c2        1 PL9     -0.167200
     24 C24         0.8760    0.4190  -10.7010 c2        1 PL9     -0.127400
     25 C25         0.2270    0.3310  -12.0320 c3        1 PL9     -0.058900
     26 C26         0.6940    1.7010   -9.9630 c3        1 PL9     -0.036200
     27 C27        -0.7190    1.8890   -9.4340 c3        1 PL9     -0.041200
     28 C28        -0.8890    1.4400   -8.0320 c2        1 PL9     -0.171200
     29 C29        -2.0570    1.4820   -7.3700 c2        1 PL9     -0.122400
     30 C30        -3.3220    1.9380   -7.9940 c3        1 PL9     -0.059900
     31 C31        -2.1530    1.0400   -5.9490 c3        1 PL9     -0.038200
     32 C32        -2.0660    2.1980   -4.9670 c3        1 PL9     -0.045200
     33 C33        -3.3380    2.9450   -4.8330 c2        1 PL9     -0.173200
     34 C34        -3.4440    4.2810   -4.7470 c2        1 PL9     -0.118400
     35 C35        -2.2730    5.1880   -4.8220 c3        1 PL9     -0.058900
     36 C36        -4.7780    4.9330   -4.5990 c3        1 PL9     -0.040200
     37 C37        -4.9760    5.5960   -3.2470 c3        1 PL9     -0.042200
     38 C38        -4.9420    4.6340   -2.1220 c2        1 PL9     -0.174200
     39 C39        -5.5210    4.8460   -0.9290 c2        1 PL9     -0.123400
     40 C40        -6.3020    6.0700   -0.6290 c3        1 PL9     -0.057900
     41 C41        -5.4190    3.8380    0.1650 c3        1 PL9     -0.039200
     42 C42        -4.5070    4.2840    1.2950 c3        1 PL9     -0.042200
     43 C43        -3.0990    4.4490    0.8670 c2        1 PL9     -0.167200
     44 C44        -2.0630    4.5430    1.7160 c2        1 PL9     -0.129400
     45 C45        -2.2290    4.4520    3.1870 c3        1 PL9     -0.056900
     46 C46        -0.6680    4.7240    1.2190 c3        1 PL9     -0.040200
     47 C47        -0.1640    6.1470    1.3850 c3        1 PL9     -0.041200
     48 C48        -0.8250    7.1010    0.4650 c2        1 PL9     -0.172200
     49 C49        -0.3560    8.3320    0.2060 c2        1 PL9     -0.129400
     50 C50         0.8920    8.8510    0.8140 c3        1 PL9     -0.056900
     51 C51        -1.0600    9.2560   -0.7160 c3        1 PL9     -0.056900
     52 C52         0.8950    2.1630    3.6120 c3        1 PL9     -0.071900
     53 C53        -1.2040    0.1600    3.4710 c3        1 PL9     -0.068900
     54 O1          2.8600    2.0260    1.5870 o         1 PL9     -0.504100
     55 O2         -1.0340   -1.6380    1.2820 o         1 PL9     -0.503100
     56 HC2         0.5740   -1.1260   -0.6900 ha        1 PL9      0.159000
     57 HC71        3.6870    0.7260   -0.4600 hc        1 PL9      0.067200
     58 HC72        2.6190   -0.2200   -1.5810 hc        1 PL9      0.067200
     59 HC8         2.6980    2.8320   -1.0850 ha        1 PL9      0.134000
     60 H101        0.4250    3.5210   -3.5890 hc        1 PL9      0.044367
     61 H102        2.0020    3.3270   -4.4620 hc        1 PL9      0.044367
     62 H103        1.9550    4.1680   -2.8540 hc        1 PL9      0.044367
     63 H111        0.8220    0.0640   -2.8200 hc        1 PL9      0.049700
     64 H112        0.3000    1.1680   -4.1510 hc        1 PL9      0.049700
     65 H121        2.5890    1.0080   -5.1870 hc        1 PL9      0.048200
     66 H122        3.1150   -0.1020   -3.8620 hc        1 PL9      0.048200
     67 H13         0.8960   -0.6050   -5.9820 ha        1 PL9      0.123000
     68 H151        2.7290   -2.1750   -3.0360 hc        1 PL9      0.041033
     69 H152        2.8420   -3.7750   -3.8770 hc        1 PL9      0.041033
     70 H153        3.9540   -2.4240   -4.3490 hc        1 PL9      0.041033
     71 H161        0.7740   -3.9840   -5.1230 hc        1 PL9      0.048700
     72 H162        0.4390   -2.8150   -6.4630 hc        1 PL9      0.048700
     73 H171        1.7020   -4.9770   -7.0630 hc        1 PL9      0.046200
     74 H172        3.1200   -4.3290   -6.1460 hc        1 PL9      0.046200
     75 H18         3.1870   -2.3060   -7.6490 ha        1 PL9      0.123000
     76 H201        1.4950   -4.7640  -10.7110 hc        1 PL9      0.040700
     77 H202        2.2720   -5.6880   -9.3600 hc        1 PL9      0.040700
     78 H203        0.6980   -4.8310   -9.0870 hc        1 PL9      0.040700
     79 H211        3.7760   -2.0380   -9.9200 hc        1 PL9      0.045200
     80 H212        3.3970   -3.3680  -11.0820 hc        1 PL9      0.045200
     81 H221        2.1740   -1.6090  -11.9920 hc        1 PL9      0.048700
     82 H222        0.9120   -2.4380  -11.0010 hc        1 PL9      0.048700
     83 H23         2.0830   -0.5010   -9.2090 ha        1 PL9      0.125000
     84 H251       -0.4810    1.1800  -12.1980 hc        1 PL9      0.040033
     85 H252        1.0010    0.3550  -12.8400 hc        1 PL9      0.040033
     86 H253       -0.3430   -0.6280  -12.1290 hc        1 PL9      0.040033
     87 H261        0.9280    2.5440  -10.6690 hc        1 PL9      0.044700
     88 H262        1.4300    1.7700   -9.1180 hc        1 PL9      0.044700
     89 H271       -0.9810    2.9830   -9.4940 hc        1 PL9      0.049200
     90 H272       -1.4480    1.3450  -10.0950 hc        1 PL9      0.049200
     91 H28         0.0170    1.0620   -7.5300 ha        1 PL9      0.121000
     92 H301       -3.1340    2.7000   -8.7890 hc        1 PL9      0.042033
     93 H302       -4.0000    2.3890   -7.2260 hc        1 PL9      0.042033
     94 H303       -3.8480    1.0670   -8.4620 hc        1 PL9      0.042033
     95 H311       -1.3160    0.3230   -5.7200 hc        1 PL9      0.045200
     96 H312       -3.1170    0.4850   -5.7950 hc        1 PL9      0.045200
     97 H321       -1.2270    2.8800   -5.2730 hc        1 PL9      0.048700
     98 H322       -1.8030    1.7860   -3.9520 hc        1 PL9      0.048700
     99 H33        -4.2420    2.3140   -4.7810 ha        1 PL9      0.120000
    100 H351       -1.7900    5.1140   -5.8290 hc        1 PL9      0.041367
    101 H352       -2.5710    6.2520   -4.6550 hc        1 PL9      0.041367
    102 H353       -1.5100    4.9130   -4.0500 hc        1 PL9      0.041367
    103 H361       -4.8850    5.7140   -5.3990 hc        1 PL9      0.045700
    104 H362       -5.5960    4.1790   -4.7570 hc        1 PL9      0.045700
    105 H371       -4.1710    6.3670   -3.0850 hc        1 PL9      0.047200
    106 H372       -5.9580    6.1440   -3.2600 hc        1 PL9      0.047200
    107 H38        -4.3780    3.7050   -2.3170 ha        1 PL9      0.129000
    108 H401       -5.7210    6.9850   -0.9040 hc        1 PL9      0.040367
    109 H402       -7.2530    6.0740   -1.2200 hc        1 PL9      0.040367
    110 H403       -6.5630    6.1310    0.4550 hc        1 PL9      0.040367
    111 H411       -6.4450    3.6530    0.5840 hc        1 PL9      0.046200
    112 H412       -5.0440    2.8610   -0.2430 hc        1 PL9      0.046200
    113 H421       -4.8780    5.2610    1.7130 hc        1 PL9      0.047200
    114 H422       -4.5680    3.5270    2.1240 hc        1 PL9      0.047200
    115 H43        -2.9400    4.5110   -0.2240 ha        1 PL9      0.131000
    116 H451       -3.1170    5.0430    3.5240 hc        1 PL9      0.038367
    117 H452       -2.3880    3.3850    3.4870 hc        1 PL9      0.038367
    118 H453       -1.3260    4.8370    3.7210 hc        1 PL9      0.038367
    119 H461        0.0120    4.0330    1.7920 hc        1 PL9      0.046200
    120 H462       -0.6030    4.4340    0.1370 hc        1 PL9      0.046200
    121 H471        0.9470    6.1570    1.2070 hc        1 PL9      0.047700
    122 H472       -0.3280    6.4840    2.4460 hc        1 PL9      0.047700
    123 H48        -1.7580    6.7420   -0.0010 ha        1 PL9      0.129000
    124 H501        0.8980    8.6680    1.9180 hc        1 PL9      0.039367
    125 H502        1.0030    9.9490    0.6380 hc        1 PL9      0.039367
    126 H503        1.7810    8.3320    0.3740 hc        1 PL9      0.039367
    127 H511       -0.3720    9.5740   -1.5400 hc        1 PL9      0.039367
    128 H512       -1.9610    8.7790   -1.1720 hc        1 PL9      0.039367
    129 H513       -1.3870   10.1720   -0.1640 hc        1 PL9      0.039367
    130 H521        1.0480    1.6230    4.5810 hc        1 PL9      0.060033
    131 H522        1.7370    2.8850    3.4690 hc        1 PL9      0.060033
    132 H523       -0.0650    2.7400    3.6850 hc        1 PL9      0.060033
    133 H531       -1.8820   -0.7090    3.2790 hc        1 PL9      0.059700
    134 H532       -1.8190    1.0980    3.4880 hc        1 PL9      0.059700
    135 H533       -0.7370    0.0350    4.4810 hc        1 PL9      0.059700
@<TRIPOS>BOND
     1    1    2 2   
     2    1    6 1   
     3    1   56 1   
     4    2    3 1   
     5    2    7 1   
     6    3    4 1   
     7    3   54 2   
     8    4    5 2   
     9    4   52 1   
    10    5    6 1   
    11    5   53 1   
    12    6   55 2   
    13    7    8 1   
    14    7   57 1   
    15    7   58 1   
    16    8    9 2   
    17    8   59 1   
    18    9   10 1   
    19    9   11 1   
    20   10   60 1   
    21   10   61 1   
    22   10   62 1   
    23   11   12 1   
    24   11   63 1   
    25   11   64 1   
    26   12   13 1   
    27   12   65 1   
    28   12   66 1   
    29   13   14 2   
    30   13   67 1   
    31   14   15 1   
    32   14   16 1   
    33   15   68 1   
    34   15   69 1   
    35   15   70 1   
    36   16   17 1   
    37   16   71 1   
    38   16   72 1   
    39   17   18 1   
    40   17   73 1   
    41   17   74 1   
    42   18   19 2   
    43   18   75 1   
    44   19   20 1   
    45   19   21 1   
    46   20   76 1   
    47   20   77 1   
    48   20   78 1   
    49   21   22 1   
    50   21   79 1   
    51   21   80 1   
    52   22   23 1   
    53   22   81 1   
    54   22   82 1   
    55   23   24 2   
    56   23   83 1   
    57   24   25 1   
    58   24   26 1   
    59   25   84 1   
    60   25   85 1   
    61   25   86 1   
    62   26   27 1   
    63   26   87 1   
    64   26   88 1   
    65   27   28 1   
    66   27   89 1   
    67   27   90 1   
    68   28   29 2   
    69   28   91 1   
    70   29   30 1   
    71   29   31 1   
    72   30   92 1   
    73   30   93 1   
    74   30   94 1   
    75   31   32 1   
    76   31   95 1   
    77   31   96 1   
    78   32   33 1   
    79   32   97 1   
    80   32   98 1   
    81   33   34 2   
    82   33   99 1   
    83   34   35 1   
    84   34   36 1   
    85   35  100 1   
    86   35  101 1   
    87   35  102 1   
    88   36   37 1   
    89   36  103 1   
    90   36  104 1   
    91   37   38 1   
    92   37  105 1   
    93   37  106 1   
    94   38   39 2   
    95   38  107 1   
    96   39   40 1   
    97   39   41 1   
    98   40  108 1   
    99   40  109 1   
   100   40  110 1   
   101   41   42 1   
   102   41  111 1   
   103   41  112 1   
   104   42   43 1   
   105   42  113 1   
   106   42  114 1   
   107   43   44 2   
   108   43  115 1   
   109   44   45 1   
   110   44   46 1   
   111   45  116 1   
   112   45  117 1   
   113   45  118 1   
   114   46   47 1   
   115   46  119 1   
   116   46  120 1   
   117   47   48 1   
   118   47  121 1   
   119   47  122 1   
   120   48   49 2   
   121   48  123 1   
   122   49   50 1   
   123   49   51 1   
   124   50  124 1   
   125   50  125 1   
   126   50  126 1   
   127   51  127 1   
   128   51  128 1   
   129   51  129 1   
   130   52  130 1   
   131   52  131 1   
   132   52  132 1   
   133   53  133 1   
   134   53  134 1   
   135   53  135 1   
@<TRIPOS>SUBSTRUCTURE
     1 PL9         1 TEMP              0 ****  ****    0 ROOT
