@<TRIPOS>MOLECULE
molecule
   37    39     1     0     0
SMALL
bcc


@<TRIPOS>ATOM
      1 Cl20         0.0000     0.0000     0.0000 cl         1 PLB      -0.121400
      2 C16          1.7360     0.0000     0.0000 ca         1 PLB       0.045400
      3 C15          2.4250     0.0000     1.1990 ca         1 PLB      -0.143000
      4 C14          3.8060    -0.0060     1.2060 ca         1 PLB       0.078400
      5 Cl19         4.6690    -0.0060     2.7120 cl         1 PLB      -0.062400
      6 C17          2.4260    -0.0020    -1.2020 ca         1 PLB      -0.137000
      7 C18          3.8040    -0.0030    -1.2100 ca         1 PLB      -0.075000
      8 C13          4.5070    -0.0010    -0.0030 ca         1 PLB      -0.126600
      9 C11          5.9830    -0.0020    -0.0050 c          1 PLB       0.654700
     10 O12          6.5920    -0.0020     1.0480 o          1 PLB      -0.610100
     11 N10          6.6560    -0.0040    -1.1720 ns         1 PLB      -0.438100
     12 C2           8.0420    -0.1280    -1.1760 ca         1 PLB       0.086600
     13 C3           8.6890    -0.7550    -0.1210 ca         1 PLB      -0.164000
     14 C4          10.0630    -0.8780    -0.1240 ca         1 PLB      -0.119000
     15 C5          10.8100    -0.3790    -1.1860 ca         1 PLB       0.020100
     16 C6          10.1820     0.2430    -2.2460 ca         1 PLB      -0.053000
     17 C1           8.7900     0.3730    -2.2520 ca         1 PLB      -0.137600
     18 C7           8.1130     1.0350    -3.3810 c          1 PLB       0.898200
     19 O9           6.8990     1.0660    -3.4280 o          1 PLB      -0.838300
     20 O8           8.8390     1.6070    -4.3610 o          1 PLB      -0.838300
     21 O21         12.1640    -0.5050    -1.1790 os         1 PLB      -0.300400
     22 C22         12.4570    -1.6250    -1.8810 ca         1 PLB       0.896300
     23 N27         11.4790    -2.2850    -2.4810 nb         1 PLB      -0.760500
     24 C26         11.7320    -3.3800    -3.1790 ca         1 PLB       0.488200
     25 C25         13.0360    -3.8400    -3.2670 ca         1 PLB      -0.443600
     26 C24         14.0340    -3.1280    -2.6200 ca         1 PLB       0.488200
     27 N23         13.7130    -2.0370    -1.9430 nb         1 PLB      -0.760500
     28 H15          1.8800     0.0050     2.1360 ha         1 PLB       0.149000
     29 H17          1.8800    -0.0040    -2.1380 ha         1 PLB       0.147000
     30 H18          4.3410    -0.0010    -2.1510 ha         1 PLB       0.174000
     31 H10          6.1550     0.0430    -2.0370 hn         1 PLB       0.373500
     32 H3           8.1140    -1.1460     0.7090 ha         1 PLB       0.159000
     33 H4          10.5620    -1.3670     0.7040 ha         1 PLB       0.120000
     34 H6          10.7660     0.6290    -3.0730 ha         1 PLB       0.166000
     35 H26         10.9280    -3.9140    -3.6700 h4         1 PLB       0.024100
     36 H25         13.2710    -4.7350    -3.8300 ha         1 PLB       0.135000
     37 H24         15.0640    -3.4610    -2.6680 h4         1 PLB       0.024100
@<TRIPOS>BOND
     1     1     2 1
     2     2     3 ar
     3     2     6 ar
     4     3     4 ar
     5     3    28 1
     6     4     5 1
     7     4     8 ar
     8     6     7 ar
     9     6    29 1
    10     7     8 ar
    11     7    30 1
    12     8     9 1
    13     9    10 2
    14     9    11 1
    15    11    12 1
    16    11    31 1
    17    12    13 ar
    18    12    17 ar
    19    13    14 ar
    20    13    32 1
    21    14    15 ar
    22    14    33 1
    23    15    16 ar
    24    15    21 1
    25    16    17 ar
    26    16    34 1
    27    17    18 1
    28    18    19 1
    29    18    20 1
    30    21    22 1
    31    22    23 ar
    32    22    27 ar
    33    23    24 ar
    34    24    25 ar
    35    24    35 1
    36    25    26 ar
    37    25    36 1
    38    26    27 ar
    39    26    37 1
@<TRIPOS>SUBSTRUCTURE
     1 PLB         1 TEMP              0 ****  ****    0 ROOT
