@<TRIPOS>MOLECULE
molecule
  106   105     1     0     0
SMALL
bcc


@<TRIPOS>ATOM
      1 C1           0.0000     0.0000     0.0000 c3         1 PLC      -0.235600
      2 C2           1.5300     0.0000     0.0000 c3         1 PLC       0.137100
      3 C3           2.0410     0.0000     1.4410 c3         1 PLC       0.170400
      4 C4          -4.1120    -2.2770     1.3170 c3         1 PLC      -0.085600
      5 C5          -4.7540    -3.4800     2.0120 c3         1 PLC      -0.119200
      6 C6          -4.1630    -3.3880     4.9510 c3         1 PLC       0.024433
      7 C7          -3.5470    -2.3050     3.7580 c3         1 PLC       0.024433
      8 C8          -5.7220    -3.2210     4.2250 c3         1 PLC       0.024433
      9 C1'          2.7380    -2.3820    -2.7190 c3         1 PLC      -0.166400
     10 C2'          2.9070    -2.0780    -4.2090 c3         1 PLC      -0.047400
     11 C3'          3.4180    -3.3270    -4.9300 c3         1 PLC      -0.204400
     12 C4'          3.5870    -3.0220    -6.4190 c3         1 PLC      -0.034400
     13 C5'          4.0970    -4.2710    -7.1410 c3         1 PLC      -0.132400
     14 C6'          4.2660    -3.9650    -8.6310 c3         1 PLC      -0.055400
     15 C7'          4.7760    -5.2160    -9.3520 c3         1 PLC      -0.106400
     16 C8'          4.9460    -4.9110   -10.8420 c3         1 PLC      -0.069400
     17 C9'          5.4550    -6.1600   -11.5640 c3         1 PLC      -0.087400
     18 CA'          5.6250    -5.8550   -13.0530 c3         1 PLC      -0.081400
     19 CB'          6.1340    -7.1050   -13.7740 c3         1 PLC      -0.092100
     20 CB           1.8810    -1.3970     3.4100 c          1 PLC       0.670100
     21 C1B          1.3800    -2.6280     4.1210 c3         1 PLC      -0.475400
     22 C2B          1.8900    -2.6280     5.5630 c3         1 PLC      -0.146400
     23 C3B          1.3810    -3.8760     6.2850 c3         1 PLC      -0.056400
     24 C4B          1.8920    -3.8770     7.7270 c3         1 PLC      -0.471400
     25 C5B          1.3820    -5.1250     8.4500 c3         1 PLC      -0.097400
     26 C6B          1.8920    -5.1260     9.8910 c3         1 PLC      -0.039400
     27 C7B          1.3840    -6.3740    10.6130 c3         1 PLC      -0.468400
     28 C8B          1.8940    -6.3740    12.0560 c3         1 PLC      -0.004400
     29 C9B          1.3840    -7.6230    12.7770 c3         1 PLC      -0.084400
     30 CAA          1.8950    -7.6230    14.2190 c3         1 PLC      -0.097400
     31 CBA          1.3860    -8.8720    14.9410 c3         1 PLC      -0.088100
     32 O'           2.0360    -0.1360    -2.6300 o          1 PLC      -0.562000
     33 OB           2.5770    -0.6020     3.9970 o          1 PLC      -0.607000
     34 O2           2.0140    -1.1850    -0.6850 os         1 PLC      -0.461900
     35 O3           1.5570    -1.1860     2.1260 os         1 PLC      -0.430900
     36 O1P         -2.5440    -1.0820    -0.7680 o          1 PLC      -0.649500
     37 O2P         -2.5840     0.2340     1.3840 o          1 PLC      -0.649500
     38 O3P         -0.4750    -1.1670     0.6740 os         1 PLC      -0.390200
     39 O4P         -2.6890    -2.3920     1.3820 os         1 PLC      -0.389200
     40 N           -4.4640    -3.4220     3.4820 n4         1 PLC      -0.685800
     41 P           -2.0840    -1.1010     0.6370 p5         1 PLC       1.112800
     42 H11         -0.3610    -0.7640     0.6780 h1         1 PLC       0.176200
     43 H12         -0.3610    -0.2050    -1.0010 h1         1 PLC       0.176200
     44 H2           1.8910     0.8850    -0.5110 h1         1 PLC       0.102700
     45 H31          3.0770    -0.3150     1.4570 h1         1 PLC       0.062700
     46 H32          1.9620     0.9990     1.8520 h1         1 PLC       0.062700
     47 H41         -4.1980    -1.4040     1.9520 h1         1 PLC       0.190700
     48 H42         -3.0660    -2.4850     1.1290 h1         1 PLC       0.190700
     49 H51         -4.1730    -4.3700     1.8020 hx         1 PLC       0.194700
     50 H52         -4.7790    -3.3080     3.0810 hx         1 PLC       0.194700
     51 H61         -3.0900    -3.3990     5.1010 hx         1 PLC       0.108033
     52 H62         -4.6030    -4.2550     5.4300 hx         1 PLC       0.108033
     53 H63         -4.5790    -2.4860     5.3850 hx         1 PLC       0.108033
     54 H71         -3.2000    -2.3670     4.7820 hx         1 PLC       0.108033
     55 H72         -2.7000    -2.3580     3.0850 hx         1 PLC       0.108033
     56 H73         -4.0680    -1.3660     3.6100 hx         1 PLC       0.108033
     57 H81         -6.4240    -4.0040     3.9640 hx         1 PLC       0.108033
     58 H82         -6.1440    -2.2580     3.9660 hx         1 PLC       0.108033
     59 H83         -5.5230    -3.2550     5.2890 hx         1 PLC       0.108033
     60 H1'1         3.2820    -3.2860    -2.4710 hc         1 PLC       0.079700
     61 H1'2         1.6870    -2.5220    -2.4960 hc         1 PLC       0.079700
     62 H2'1         1.9530    -1.7840    -4.6280 hc         1 PLC       0.056200
     63 H2'2         3.6210    -1.2720    -4.3340 hc         1 PLC       0.056200
     64 H3'1         3.4050    -4.1690    -4.2470 hc         1 PLC       0.074700
     65 H3'2         4.4310    -3.1570    -5.2740 hc         1 PLC       0.074700
     66 H4'1         2.6150    -3.0120    -6.8990 hc         1 PLC       0.040700
     67 H4'2         4.0570    -2.0530    -6.5380 hc         1 PLC       0.040700
     68 H5'1         3.8410    -5.1510    -6.5640 hc         1 PLC       0.055700
     69 H5'2         5.1730    -4.2110    -7.2500 hc         1 PLC       0.055700
     70 H6'1         3.3000    -3.7380    -9.0650 hc         1 PLC       0.038700
     71 H6'2         4.9260    -3.1150    -8.7520 hc         1 PLC       0.038700
     72 H7'1         5.8570    -5.2490    -9.2960 hc         1 PLC       0.047700
     73 H7'2         4.3630    -6.0990    -8.8790 hc         1 PLC       0.047700
     74 H8'1         3.9910    -4.6160   -11.2610 hc         1 PLC       0.039700
     75 H8'2         5.6590    -4.1040   -10.9660 hc         1 PLC       0.039700
     76 H9'1         6.4980    -6.3200   -11.3180 hc         1 PLC       0.042700
     77 H9'2         4.8750    -7.0200   -11.2510 hc         1 PLC       0.042700
     78 HT'1         4.6730    -5.5500   -13.4700 hc         1 PLC       0.039700
     79 HT'2         6.3460    -5.0570   -13.1780 hc         1 PLC       0.039700
     80 HE'1         6.9560    -7.5350   -13.2150 hc         1 PLC       0.032367
     81 HE'2         6.4740    -6.8350   -14.7670 hc         1 PLC       0.032367
     82 HE'3         5.3320    -7.8290   -13.8520 hc         1 PLC       0.032367
     83 H1A1         0.6000    -3.0940     3.5300 hc         1 PLC       0.174200
     84 H1A2         0.9810    -2.3480     5.0890 hc         1 PLC       0.174200
     85 H2A1         2.5560    -3.4700     5.7100 hc         1 PLC       0.136200
     86 H2A2         2.4260    -1.7060     5.7560 hc         1 PLC       0.136200
     87 H3A1         1.2470    -4.6780     5.5680 hc         1 PLC       0.045200
     88 H3A2         0.4340    -3.6560     6.7620 hc         1 PLC       0.045200
     89 H4A1         2.7620    -3.2360     7.8020 hc         1 PLC       0.165200
     90 H4A2         2.1610    -4.8860     8.0140 hc         1 PLC       0.165200
     91 H5A1         0.8180    -5.7380     7.7570 hc         1 PLC       0.099700
     92 H5A2         0.7440    -4.8300     9.2740 hc         1 PLC       0.099700
     93 H6A1         1.8250    -4.1240    10.2980 hc         1 PLC       0.047700
     94 H6A2         2.9250    -5.4540     9.9080 hc         1 PLC       0.047700
     95 H7A1         0.4000    -6.6320    10.2390 hc         1 PLC       0.147200
     96 H7A2         1.3250    -6.1760    11.6770 hc         1 PLC       0.147200
     97 H8A1         1.9970    -5.3530    12.4020 hc         1 PLC       0.068200
     98 H8A2         2.8570    -6.8690    12.0980 hc         1 PLC       0.068200
     99 H9A1         0.3090    -7.5620    12.8890 hc         1 PLC       0.061700
    100 H9A2         1.6370    -8.5030    12.1980 hc         1 PLC       0.061700
    101 HTA1         2.9530    -7.8580    14.2280 hc         1 PLC       0.048700
    102 HTA2         1.7380    -6.6450    14.6580 hc         1 PLC       0.048700
    103 HEA1         1.8200    -8.9190    15.9320 hc         1 PLC       0.038700
    104 HEA2         1.6700    -9.7540    14.3800 hc         1 PLC       0.038700
    105 HEA3         0.3060    -8.8280    15.0220 hc         1 PLC       0.038700
    106 C'           2.2370    -1.1520    -2.0090 c          1 PLC       0.655100
@<TRIPOS>BOND
     1     1     2 1
     2     1    38 1
     3     1    42 1
     4     1    43 1
     5     2     3 1
     6     2    34 1
     7     2    44 1
     8     3    35 1
     9     3    45 1
    10     3    46 1
    11     4     5 1
    12     4    39 1
    13     4    47 1
    14     4    48 1
    15     5    40 1
    16     5    49 1
    17     5    50 1
    18     6    40 1
    19     6    51 1
    20     6    52 1
    21     6    53 1
    22     7    40 1
    23     7    54 1
    24     7    55 1
    25     7    56 1
    26     8    40 1
    27     8    57 1
    28     8    58 1
    29     8    59 1
    30   106     9 1
    31   106    32 2
    32   106    34 1
    33     9    10 1
    34     9    60 1
    35     9    61 1
    36    10    11 1
    37    10    62 1
    38    10    63 1
    39    11    12 1
    40    11    64 1
    41    11    65 1
    42    12    13 1
    43    12    66 1
    44    12    67 1
    45    13    14 1
    46    13    68 1
    47    13    69 1
    48    14    15 1
    49    14    70 1
    50    14    71 1
    51    15    16 1
    52    15    72 1
    53    15    73 1
    54    16    17 1
    55    16    74 1
    56    16    75 1
    57    17    18 1
    58    17    76 1
    59    17    77 1
    60    18    19 1
    61    18    78 1
    62    18    79 1
    63    19    80 1
    64    19    81 1
    65    19    82 1
    66    20    21 1
    67    20    33 2
    68    20    35 1
    69    21    22 1
    70    21    83 1
    71    21    84 1
    72    22    23 1
    73    22    85 1
    74    22    86 1
    75    23    24 1
    76    23    87 1
    77    23    88 1
    78    24    25 1
    79    24    89 1
    80    24    90 1
    81    25    26 1
    82    25    91 1
    83    25    92 1
    84    26    27 1
    85    26    93 1
    86    26    94 1
    87    27    28 1
    88    27    95 1
    89    27    96 1
    90    28    29 1
    91    28    97 1
    92    28    98 1
    93    29    30 1
    94    29    99 1
    95    29   100 1
    96    30    31 1
    97    30   101 1
    98    30   102 1
    99    31   103 1
   100    31   104 1
   101    31   105 1
   102    36    41 1
   103    37    41 1
   104    38    41 1
   105    39    41 1
@<TRIPOS>SUBSTRUCTURE
     1 PLC         1 TEMP              0 ****  ****    0 ROOT
