@<TRIPOS>MOLECULE
PLD
  160   159     1     0     0
SMALL
bcc


@<TRIPOS>ATOM
      1 C1           0.0000     0.0000     0.0000 c3         1 PLD       0.293400
      2 C2           1.5300     0.0000     0.0000 c3         1 PLD       0.152100
      3 C3           2.0400     0.0000     1.4420 c3         1 PLD       0.231400
      4 C4          -3.4910    -3.2510     2.2640 c3         1 PLD       0.303400
      5 C5          -3.3060    -4.3360     3.3250 c3         1 PLD      -0.056200
      6 C6          -5.1130    -5.6500     2.4500 c3         1 PLD       0.016433
      7 C7          -4.4490    -5.9000     4.7420 c3         1 PLD       0.016433
      8 C8          -5.5570    -3.8960     4.0260 c3         1 PLD       0.016433
      9 C1'          2.7190    -2.2750    -2.7850 c3         1 PLD      -0.070400
     10 C2'          2.8620    -1.8950    -4.2610 c3         1 PLD      -0.021400
     11 C3'          3.3720    -3.1030    -5.0510 c3         1 PLD      -0.030400
     12 C4'          3.5160    -2.7230    -6.5250 c3         1 PLD      -0.027400
     13 C5'          4.0250    -3.9320    -7.3150 c3         1 PLD      -0.029400
     14 C6'          4.1690    -3.5520    -8.7910 c3         1 PLD      -0.029400
     15 C7'          4.6780    -4.7600    -9.5800 c3         1 PLD      -0.029400
     16 C8'          4.8220    -4.3800   -11.0550 c3         1 PLD      -0.029400
     17 C9'          5.3310    -5.5880   -11.8440 c3         1 PLD      -0.029400
     18 CA'          5.4750    -5.2090   -13.3200 c3         1 PLD      -0.029400
     19 CB'          5.9840    -6.4170   -14.1100 c3         1 PLD      -0.029400
     20 CB           1.9110    -1.3390     3.4080 c          1 PLD       0.687100
     21 C1B          1.4650    -2.5630     4.1680 c3         1 PLD      -0.070400
     22 C2B          1.9870    -2.4890     5.6050 c3         1 PLD      -0.022400
     23 C3B          1.5350    -3.7310     6.3760 c3         1 PLD      -0.027400
     24 C4B          2.0560    -3.6570     7.8120 c3         1 PLD      -0.028400
     25 C5B          1.6040    -4.8990     8.5830 c3         1 PLD      -0.028400
     26 C6B          2.1260    -4.8250    10.0190 c3         1 PLD      -0.029400
     27 C7B          1.6730    -6.0670    10.7910 c3         1 PLD      -0.028400
     28 C8B          2.1950    -5.9940    12.2270 c3         1 PLD      -0.029400
     29 C9B          1.7420    -7.2350    12.9980 c3         1 PLD      -0.029400
     30 CAA          2.2640    -7.1620    14.4350 c3         1 PLD      -0.029400
     31 CBA          1.8120    -8.4040    15.2050 c3         1 PLD      -0.029400
     32 O'           1.9970    -0.0420    -2.5750 o          1 PLD      -0.599000
     33 OB           2.6560    -0.5430     3.9300 o          1 PLD      -0.614000
     34 O2           2.0140    -1.1850    -0.6840 os         1 PLD      -0.391900
     35 O3           1.4810    -1.1350     2.1530 os         1 PLD      -0.347900
     36 O1P         -2.7930    -0.3330     1.3730 o          1 PLD      -0.646000
     37 O2P         -2.5950    -1.9100    -0.5870 o          1 PLD      -0.646000
     38 O3P         -0.4760    -1.1190     0.7520 os         1 PLD      -0.485200
     39 O4P         -2.2150    -2.7360     1.8800 os         1 PLD      -0.483200
     40 N           -4.6060    -4.9460     3.6360 n4         1 PLD       0.054200
     41 P           -2.0360    -1.4990     0.8660 p5         1 PLD       0.925800
     42 CC'          6.1280    -6.0370   -15.5850 c3         1 PLD      -0.029400
     43 CD'          6.6380    -7.2450   -16.3750 c3         1 PLD      -0.029400
     44 CE'          6.7810    -6.8650   -17.8500 c3         1 PLD      -0.029400
     45 CF'          7.2920    -8.0730   -18.6390 c3         1 PLD      -0.029400
     46 CG'          7.4350    -7.6940   -20.1150 c3         1 PLD      -0.029400
     47 CH'          7.9450    -8.9010   -20.9040 c3         1 PLD      -0.029400
     48 CI'          8.0880    -8.5230   -22.3790 c3         1 PLD      -0.030400
     49 CJ'          8.5980    -9.7300   -23.1690 c3         1 PLD      -0.028400
     50 CK'          8.7420    -9.3500   -24.6440 c3         1 PLD       0.006900
     51 CCA          2.3340    -8.3300    16.6410 c3         1 PLD      -0.029400
     52 CDA          1.8810    -9.5720    17.4130 c3         1 PLD      -0.029400
     53 CEA          2.4030    -9.4990    18.8490 c3         1 PLD      -0.029400
     54 CFA          1.9500   -10.7400    19.6210 c3         1 PLD      -0.029400
     55 CGA          2.4720   -10.6670    21.0570 c3         1 PLD      -0.029400
     56 CHA          2.0190   -11.9080    21.8280 c3         1 PLD      -0.029400
     57 CIA          2.5420   -11.8340    23.2640 c3         1 PLD      -0.030400
     58 CJA          2.0890   -13.0770    24.0350 c3         1 PLD      -0.028400
     59 CKA          2.6110   -13.0030    25.4720 c3         1 PLD       0.005900
     60 H11         -0.3610    -0.0700    -1.0190 h1         1 PLD       0.001200
     61 H12         -0.3610     0.9170     0.4490 h1         1 PLD       0.001200
     62 H2           1.8910     0.8850    -0.5110 h1         1 PLD       0.041700
     63 H31          3.1210    -0.0700     1.4430 h1         1 PLD       0.010200
     64 H32          1.7370     0.9170     1.9330 h1         1 PLD       0.010200
     65 H41         -3.9860    -3.6730     1.3980 h1         1 PLD      -0.001800
     66 H42         -4.0960    -2.4490     2.6700 h1         1 PLD      -0.001800
     67 H51         -2.6310    -5.0960     2.9500 hx         1 PLD       0.074700
     68 H52         -2.8900    -3.8960     4.2230 hx         1 PLD       0.074700
     69 H61         -4.2990    -6.1770     1.9680 hx         1 PLD       0.068367
     70 H62         -5.5380    -4.9330     1.7580 hx         1 PLD       0.068367
     71 H63         -5.8750    -6.3590     2.7490 hx         1 PLD       0.068367
     72 H71         -4.1190    -5.3730     5.6290 hx         1 PLD       0.068367
     73 H72         -5.3990    -6.3820     4.9410 hx         1 PLD       0.068367
     74 H73         -3.7140    -6.6480     4.4710 hx         1 PLD       0.068367
     75 H81         -6.3840    -4.3400     4.5660 hx         1 PLD       0.068367
     76 H82         -5.9310    -3.4000     3.1380 hx         1 PLD       0.068367
     77 H83         -5.0580    -3.1730     4.6600 hx         1 PLD       0.068367
     78 H1'1         2.0140    -3.0920    -2.6900 hc         1 PLD       0.033700
     79 H1'2         3.6820    -2.5810    -2.3950 hc         1 PLD       0.033700
     80 H2'1         1.8990    -1.5890    -4.6510 hc         1 PLD       0.030200
     81 H2'2         3.5670    -1.0780    -4.3570 hc         1 PLD       0.030200
     82 H3'1         2.6670    -3.9200    -4.9550 hc         1 PLD       0.011700
     83 H3'2         4.3350    -3.4090    -4.6610 hc         1 PLD       0.011700
     84 H4'1         2.5520    -2.4170    -6.9150 hc         1 PLD       0.017200
     85 H4'2         4.2200    -1.9060    -6.6210 hc         1 PLD       0.017200
     86 H5'1         4.9880    -4.2380    -6.9250 hc         1 PLD       0.013200
     87 H5'2         3.3200    -4.7490    -7.2190 hc         1 PLD       0.013200
     88 H6'1         3.2060    -3.2460    -9.1800 hc         1 PLD       0.015200
     89 H6'2         4.8740    -2.7350    -8.8860 hc         1 PLD       0.015200
     90 H7'1         3.9730    -5.5770    -9.4850 hc         1 PLD       0.013700
     91 H7'2         5.6410    -5.0660    -9.1900 hc         1 PLD       0.013700
     92 H8'1         3.8590    -4.0740   -11.4450 hc         1 PLD       0.015200
     93 H8'2         5.5270    -3.5630   -11.1510 hc         1 PLD       0.015200
     94 H9'1         6.2940    -5.8950   -11.4550 hc         1 PLD       0.013700
     95 H9'2         4.6270    -6.4060   -11.7490 hc         1 PLD       0.013700
     96 HT'1         6.1800    -4.3910   -13.4160 hc         1 PLD       0.014700
     97 HT'2         4.5120    -4.9020   -13.7100 hc         1 PLD       0.014700
     98 HE'1         6.9480    -6.7230   -13.7200 hc         1 PLD       0.014700
     99 HE'2         5.2800    -7.2340   -14.0140 hc         1 PLD       0.014700
    100 H1A1         0.3830    -2.6070     4.1790 hc         1 PLD       0.032700
    101 H1A2         1.8580    -3.4500     3.6860 hc         1 PLD       0.032700
    102 H2A1         1.5940    -1.6020     6.0870 hc         1 PLD       0.030700
    103 H2A2         3.0690    -2.4450     5.5940 hc         1 PLD       0.030700
    104 H3A1         0.4520    -3.7750     6.3860 hc         1 PLD       0.005200
    105 H3A2         1.9280    -4.6180     5.8940 hc         1 PLD       0.005200
    106 H4A1         3.1380    -3.6130     7.8010 hc         1 PLD       0.019200
    107 H4A2         1.6630    -2.7700     8.2930 hc         1 PLD       0.019200
    108 H5A1         0.5210    -4.9420     8.5950 hc         1 PLD       0.009200
    109 H5A2         1.9960    -5.7860     8.1010 hc         1 PLD       0.009200
    110 H6A1         3.2090    -4.7830    10.0080 hc         1 PLD       0.017200
    111 H6A2         1.7350    -3.9380    10.5010 hc         1 PLD       0.017200
    112 H7A1         0.5900    -6.1100    10.8020 hc         1 PLD       0.011700
    113 H7A2         2.0640    -6.9550    10.3090 hc         1 PLD       0.011700
    114 H8A1         3.2780    -5.9510    12.2160 hc         1 PLD       0.016200
    115 H8A2         1.8030    -5.1060    12.7090 hc         1 PLD       0.016200
    116 H9A1         2.1340    -8.1220    12.5160 hc         1 PLD       0.012700
    117 H9A2         0.6600    -7.2780    13.0080 hc         1 PLD       0.012700
    118 HTA1         3.3460    -7.1180    14.4240 hc         1 PLD       0.015700
    119 HTA2         1.8710    -6.2750    14.9170 hc         1 PLD       0.015700
    120 HEA1         0.7290    -8.4480    15.2160 hc         1 PLD       0.014200
    121 HEA2         2.2040    -9.2910    14.7240 hc         1 PLD       0.014200
    122 HA'1         6.8330    -5.2200   -15.6810 hc         1 PLD       0.014700
    123 HA'2         5.1650    -5.7310   -15.9750 hc         1 PLD       0.014700
    124 HB'1         7.6010    -7.5510   -15.9850 hc         1 PLD       0.014700
    125 HB'2         5.9330    -8.0620   -16.2790 hc         1 PLD       0.014700
    126 HC'1         7.4860    -6.0480   -17.9450 hc         1 PLD       0.014700
    127 HC'2         5.8180    -6.5600   -18.2400 hc         1 PLD       0.014700
    128 HD'1         8.2550    -8.3780   -18.2490 hc         1 PLD       0.014700
    129 HD'2         6.5880    -8.8910   -18.5430 hc         1 PLD       0.014700
    130 HF'1         6.4710    -7.3880   -20.5050 hc         1 PLD       0.014700
    131 HF'2         8.1390    -6.8760   -20.2110 hc         1 PLD       0.014700
    132 HG'1         7.2410    -9.7190   -20.8080 hc         1 PLD       0.014200
    133 HG'2         8.9080    -9.2070   -20.5140 hc         1 PLD       0.014200
    134 HH'1         7.1250    -8.2170   -22.7690 hc         1 PLD       0.014700
    135 HH'2         8.7930    -7.7050   -22.4750 hc         1 PLD       0.014700
    136 HI'1         9.5610   -10.0360   -22.7790 hc         1 PLD       0.011700
    137 HI'2         7.8940   -10.5470   -23.0730 hc         1 PLD       0.011700
    138 HJ'1         9.4520    -8.5380   -24.7410 hc         1 PLD       0.000033
    139 HJ'2         9.0950   -10.2070   -25.2050 hc         1 PLD       0.000033
    140 HJ'3         7.7800    -9.0360   -25.0320 hc         1 PLD       0.000033
    141 HAA1         3.4160    -8.2860    16.6310 hc         1 PLD       0.015200
    142 HAA2         1.9410    -7.4420    17.1230 hc         1 PLD       0.015200
    143 HBA1         0.7980    -9.6150    17.4240 hc         1 PLD       0.014200
    144 HBA2         2.2720   -10.4590    16.9310 hc         1 PLD       0.014200
    145 HCA1         2.0120    -8.6110    19.3310 hc         1 PLD       0.015200
    146 HCA2         3.4860    -9.4560    18.8380 hc         1 PLD       0.015200
    147 HDA1         0.8680   -10.7830    19.6320 hc         1 PLD       0.014200
    148 HDA2         2.3420   -11.6270    19.1390 hc         1 PLD       0.014200
    149 HFA1         2.0800    -9.7790    21.5390 hc         1 PLD       0.014700
    150 HFA2         3.5540   -10.6240    21.0460 hc         1 PLD       0.014700
    151 HGA1         2.4110   -12.7960    21.3470 hc         1 PLD       0.014200
    152 HGA2         0.9370   -11.9510    21.8400 hc         1 PLD       0.014200
    153 HHA1         2.1500   -10.9470    23.7470 hc         1 PLD       0.014700
    154 HHA2         3.6240   -11.7910    23.2530 hc         1 PLD       0.014700
    155 HIA1         1.0060   -13.1210    24.0460 hc         1 PLD       0.011700
    156 HIA2         2.4810   -13.9640    23.5530 hc         1 PLD       0.011700
    157 HJA1         2.2930   -13.8830    26.0170 hc         1 PLD       0.000033
    158 HJA2         2.2150   -12.1170    25.9550 hc         1 PLD       0.000033
    159 HJA3         3.6930   -12.9550    25.4610 hc         1 PLD       0.000033
    160 C'           2.2170    -1.0850    -2.0080 c          1 PLD       0.697100
@<TRIPOS>BOND
     1     1     2 1   
     2     1    38 1   
     3     1    60 1   
     4     1    61 1   
     5     2     3 1   
     6     2    34 1   
     7     2    62 1   
     8     3    35 1   
     9     3    63 1   
    10     3    64 1   
    11     4     5 1   
    12     4    39 1   
    13     4    65 1   
    14     4    66 1   
    15     5    40 1   
    16     5    67 1   
    17     5    68 1   
    18     6    40 1   
    19     6    69 1   
    20     6    70 1   
    21     6    71 1   
    22     7    40 1   
    23     7    72 1   
    24     7    73 1   
    25     7    74 1   
    26     8    40 1   
    27     8    75 1   
    28     8    76 1   
    29     8    77 1   
    30     9    10 1   
    31     9    78 1   
    32     9    79 1   
    33     9   160 1   
    34    10    11 1   
    35    10    80 1   
    36    10    81 1   
    37    11    12 1   
    38    11    82 1   
    39    11    83 1   
    40    12    13 1   
    41    12    84 1   
    42    12    85 1   
    43    13    14 1   
    44    13    86 1   
    45    13    87 1   
    46    14    15 1   
    47    14    88 1   
    48    14    89 1   
    49    15    16 1   
    50    15    90 1   
    51    15    91 1   
    52    16    17 1   
    53    16    92 1   
    54    16    93 1   
    55    17    18 1   
    56    17    94 1   
    57    17    95 1   
    58    18    19 1   
    59    18    96 1   
    60    18    97 1   
    61    19    42 1   
    62    19    98 1   
    63    19    99 1   
    64    20    21 1   
    65    20    33 2   
    66    20    35 1   
    67    21    22 1   
    68    21   100 1   
    69    21   101 1   
    70    22    23 1   
    71    22   102 1   
    72    22   103 1   
    73    23    24 1   
    74    23   104 1   
    75    23   105 1   
    76    24    25 1   
    77    24   106 1   
    78    24   107 1   
    79    25    26 1   
    80    25   108 1   
    81    25   109 1   
    82    26    27 1   
    83    26   110 1   
    84    26   111 1   
    85    27    28 1   
    86    27   112 1   
    87    27   113 1   
    88    28    29 1   
    89    28   114 1   
    90    28   115 1   
    91    29    30 1   
    92    29   116 1   
    93    29   117 1   
    94    30    31 1   
    95    30   118 1   
    96    30   119 1   
    97    31    51 1   
    98    31   120 1   
    99    31   121 1   
   100    32   160 2   
   101    34   160 1   
   102    36    41 1   
   103    37    41 1   
   104    38    41 1   
   105    39    41 1   
   106    42    43 1   
   107    42   122 1   
   108    42   123 1   
   109    43    44 1   
   110    43   124 1   
   111    43   125 1   
   112    44    45 1   
   113    44   126 1   
   114    44   127 1   
   115    45    46 1   
   116    45   128 1   
   117    45   129 1   
   118    46    47 1   
   119    46   130 1   
   120    46   131 1   
   121    47    48 1   
   122    47   132 1   
   123    47   133 1   
   124    48    49 1   
   125    48   134 1   
   126    48   135 1   
   127    49    50 1   
   128    49   136 1   
   129    49   137 1   
   130    50   138 1   
   131    50   139 1   
   132    50   140 1   
   133    51    52 1   
   134    51   141 1   
   135    51   142 1   
   136    52    53 1   
   137    52   143 1   
   138    52   144 1   
   139    53    54 1   
   140    53   145 1   
   141    53   146 1   
   142    54    55 1   
   143    54   147 1   
   144    54   148 1   
   145    55    56 1   
   146    55   149 1   
   147    55   150 1   
   148    56    57 1   
   149    56   151 1   
   150    56   152 1   
   151    57    58 1   
   152    57   153 1   
   153    57   154 1   
   154    58    59 1   
   155    58   155 1   
   156    58   156 1   
   157    59   157 1   
   158    59   158 1   
   159    59   159 1   
@<TRIPOS>SUBSTRUCTURE
     1 PLD         1 TEMP              0 ****  ****    0 ROOT
