@<TRIPOS>MOLECULE
PLG
   32    32     1     0     0
SMALL
bcc


@<TRIPOS>ATOM
      1 N1           0.0000     0.0000     0.0000 nb         1 PLG      -0.616000
      2 C2           1.3180     0.0000     0.0000 ca         1 PLG       0.252600
      3 C2A          2.0650    -0.0080    -1.3100 c3         1 PLG      -0.014400
      4 C3           2.0260     0.0000     1.1930 ca         1 PLG      -0.016200
      5 O3           3.3850    -0.0010     1.1880 oh         1 PLG      -0.497100
      6 C4           1.3240     0.0120     2.3940 ca         1 PLG      -0.104300
      7 C4A          2.0530     0.0200     3.7130 c3         1 PLG       0.182100
      8 C5          -0.0600     0.0110     2.3480 ca         1 PLG      -0.107600
      9 C6          -0.6940     0.0060     1.1200 ca         1 PLG       0.383200
     10 C5A         -0.8650     0.0180     3.6220 c3         1 PLG       0.256700
     11 OP4         -2.2580     0.0170     3.3050 os         1 PLG      -0.465200
     12 P           -3.0540     0.0240     4.7040 p5         1 PLG       0.664900
     13 OP1         -2.6920     1.2360     5.4700 o          1 PLG      -0.760833
     14 OP2         -4.6380     0.0230     4.4200 o          1 PLG      -0.760833
     15 OP3         -2.6590    -1.2850     5.5520 o          1 PLG      -0.760833
     16 C            3.2740    -2.6750     5.9410 c          1 PLG       0.988600
     17 O            2.9170    -3.6340     5.2990 o          1 PLG      -0.915300
     18 OXT          3.9180    -2.8500     7.1060 o          1 PLG      -0.915300
     19 CA           2.9990    -1.2840     5.4330 c3         1 PLG       0.025800
     20 N            2.2890    -1.3620     4.1490 n7         1 PLG      -0.516200
     21 H2A1         2.7540    -0.8430    -1.3280 hc         1 PLG      -0.012633
     22 H2A2         2.6170     0.9180    -1.4160 hc         1 PLG      -0.012633
     23 H2A3         1.3600    -0.1030    -2.1270 hc         1 PLG      -0.012633
     24 HO3          3.6990     0.8780     1.0530 ho         1 PLG       0.370000
     25 H4A1         3.0010     0.5300     3.5980 h1         1 PLG       0.004200
     26 H4A2         1.4530     0.5350     4.4530 h1         1 PLG       0.004200
     27 H6          -1.7760     0.0050     1.0780 h4         1 PLG       0.025100
     28 H5A1        -0.6270    -0.8640     4.2050 h1         1 PLG       0.044200
     29 H5A2        -0.6260     0.9050     4.1960 h1         1 PLG       0.044200
     30 HA2          2.3870    -0.7520     6.1510 h1         1 PLG      -0.002800
     31 HA1          3.9350    -0.7570     5.2960 h1         1 PLG      -0.002800
     32 H            2.8650    -1.8300     3.4770 hn         1 PLG       0.247800
@<TRIPOS>BOND
     1     1     2 ar  
     2     1     9 ar  
     3     2     3 1   
     4     2     4 ar  
     5     3    21 1   
     6     3    22 1   
     7     3    23 1   
     8     4     5 1   
     9     4     6 ar  
    10     5    24 1   
    11     6     7 1   
    12     6     8 ar  
    13     7    20 1   
    14     7    25 1   
    15     7    26 1   
    16     8     9 ar  
    17     8    10 1   
    18     9    27 1   
    19    10    11 1   
    20    10    28 1   
    21    10    29 1   
    22    11    12 1   
    23    12    13 1   
    24    12    14 1   
    25    12    15 1   
    26    16    17 1   
    27    16    18 1   
    28    16    19 1   
    29    19    20 1   
    30    19    30 1   
    31    19    31 1   
    32    20    32 1   
@<TRIPOS>SUBSTRUCTURE
     1 PLG         1 TEMP              0 ****  ****    0 ROOT
