@<TRIPOS>MOLECULE
molecule
   33    33     1     0     0
SMALL
bcc


@<TRIPOS>ATOM
      1 OP2          0.0000     0.0000     0.0000 o          1 PLI      -0.917500
      2 P            1.4790     0.0000     0.0000 p5         1 PLI       1.194900
      3 OP1          2.0170     0.0000     1.5170 o          1 PLI      -0.917500
      4 OP3          2.0160    -1.3140    -0.7600 o          1 PLI      -0.917500
      5 OP4          2.0150     1.3160    -0.7590 os         1 PLI      -0.598200
      6 C5A          1.6270     2.6400    -0.3900 c3         1 PLI       0.265600
      7 C5           2.3050     3.6340    -1.2970 cc         1 PLI      -0.123200
      8 C6           3.1360     3.2090    -2.2770 cd         1 PLI       0.024000
      9 N1           3.7510     4.0940    -3.0990 na         1 PLI      -0.601800
     10 C2           3.5580     5.4320    -2.9700 cd         1 PLI      -0.015200
     11 C2A          4.2630     6.3810    -3.9050 c3         1 PLI      -0.035900
     12 C3           2.7370     5.9220    -2.0070 cc         1 PLI       0.080100
     13 O3A          2.5450     7.2630    -1.8820 oh         1 PLI      -0.464100
     14 C4           2.0750     5.0200    -1.1370 cc         1 PLI      -0.028000
     15 C4A          1.2110     5.4940    -0.1280 cf         1 PLI      -0.031400
     16 N            1.0070     6.7890     0.0090 nf         1 PLI      -0.537300
     17 CA           0.1920     7.2350     0.9580 ce         1 PLI       0.348300
     18 CB          -0.4970     6.2610     1.8790 c3         1 PLI      -0.178400
     19 C           -0.0230     8.6060     1.1040 c          1 PLI       0.801300
     20 O           -0.7710     9.0170     1.9760 o          1 PLI      -0.864300
     21 OXT          0.5960     9.4800     0.2780 o          1 PLI      -0.864300
     22 H5A1         0.5520     2.7400    -0.4830 h1         1 PLI       0.034200
     23 H5A2         1.9190     2.8290     0.6360 h1         1 PLI       0.034200
     24 H6           3.3110     2.1480    -2.4060 h4         1 PLI       0.197000
     25 H1           4.3610     3.7540    -3.8160 hn         1 PLI       0.410800
     26 H2A1         4.7330     5.8200    -4.7040 hc         1 PLI       0.027700
     27 H2A2         5.0180     6.9330    -3.3590 hc         1 PLI       0.027700
     28 H2A3         3.5440     7.0740    -4.3260 hc         1 PLI       0.027700
     29 H3A          3.2920     7.6490    -1.4550 ho         1 PLI       0.398000
     30 H4A          0.7160     4.7940     0.5340 h4         1 PLI       0.114000
     31 HBC1        -1.1170     5.5910     1.2960 hc         1 PLI       0.036033
     32 HBC2        -1.1160     6.8050     2.5820 hc         1 PLI       0.036033
     33 HBC3         0.2460     5.6880     2.4200 hc         1 PLI       0.036033
@<TRIPOS>BOND
     1     1     2 1
     2     2     3 1
     3     2     4 1
     4     2     5 1
     5     5     6 1
     6     6     7 1
     7     7     8 2
     8     7    14 1
     9     8     9 1
    10     9    10 1
    11    10    11 1
    12    10    12 2
    13    12    13 1
    14    12    14 1
    15    14    15 2
    16    15    16 1
    17    16    17 2
    18    17    18 1
    19    17    19 1
    20    19    20 1
    21    19    21 1
    22     6    22 1
    23     6    23 1
    24     8    24 1
    25     9    25 1
    26    11    26 1
    27    11    27 1
    28    11    28 1
    29    13    29 1
    30    15    30 1
    31    18    31 1
    32    18    32 1
    33    18    33 1
@<TRIPOS>SUBSTRUCTURE
     1 PLI         1 TEMP              0 ****  ****    0 ROOT
