@<TRIPOS>MOLECULE
molecule
   47    47     1     0     0
SMALL
bcc


@<TRIPOS>ATOM
      1 C11          0.0000     0.0000     0.0000 c3         1 PLK      -0.088600
      2 C12          1.5300     0.0000     0.0000 c3         1 PLK      -0.077700
      3 C13          2.0410     0.0000     1.4420 c3         1 PLK      -0.088600
      4 C14          2.0400    -1.2480    -0.7220 c3         1 PLK      -0.069400
      5 C15          1.6680    -1.1690    -2.2040 c3         1 PLK       0.179500
      6 C16          2.1250    -2.4440    -2.9140 c3         1 PLK      -0.195400
      7 C17          1.6520    -2.4210    -4.3450 c          1 PLK       0.884600
      8 O11          1.9380    -3.4440    -5.1630 o          1 PLK      -0.863300
      9 O12          1.0140    -1.4790    -4.7540 o          1 PLK      -0.863300
     10 N11          2.3290    -0.0060    -2.8120 n7         1 PLK      -0.799200
     11 C21          1.4020     1.1280    -2.9240 c3         1 PLK       0.205100
     12 C22          2.0660     2.2460    -3.6860 ca         1 PLK      -0.082300
     13 C23          1.9570     2.3280    -5.0700 ca         1 PLK      -0.018200
     14 O21          1.2460     1.3980    -5.7620 oh         1 PLK      -0.479100
     15 C24          2.5820     3.3720    -5.7340 ca         1 PLK       0.322600
     16 C25          2.4720     3.4750    -7.2350 c3         1 PLK      -0.124400
     17 N21          3.2710     4.2770    -5.0680 nb         1 PLK      -0.722000
     18 C26          3.3940     4.2290    -3.7560 ca         1 PLK       0.420200
     19 C27          2.7950     3.2200    -3.0240 ca         1 PLK      -0.140600
     20 C28          2.9380     3.1790    -1.5250 c3         1 PLK       0.248700
     21 O22          3.7300     4.2870    -1.0900 os         1 PLK      -0.589200
     22 P            4.0870     4.5570     0.4550 p5         1 PLK       1.189900
     23 O1P          5.0970     5.8060     0.5620 o          1 PLK      -0.915167
     24 O2P          2.7370     4.8870     1.2690 o          1 PLK      -0.915167
     25 O3P          4.7280     3.3540     1.0310 o          1 PLK      -0.915167
     26 H111        -0.3610    -0.8430     0.5760 hc         1 PLK       0.025533
     27 H112        -0.3610     0.9210     0.4420 hc         1 PLK       0.025533
     28 H113        -0.3610    -0.0780    -1.0180 hc         1 PLK       0.025533
     29 H12          1.8910     0.8850    -0.5100 hc         1 PLK       0.101700
     30 H131         1.6920    -0.8920     1.9490 hc         1 PLK       0.025533
     31 H132         3.1240     0.0140     1.4420 hc         1 PLK       0.025533
     32 H133         1.6680     0.8770     1.9580 hc         1 PLK       0.025533
     33 H141         3.1170    -1.3080    -0.6230 hc         1 PLK       0.026700
     34 H142         1.5870    -2.1300    -0.2830 hc         1 PLK       0.026700
     35 H15          0.5940    -1.0660    -2.3020 h1         1 PLK       0.032700
     36 H161         1.7080    -3.3070    -2.4100 hc         1 PLK       0.031200
     37 H162         3.2070    -2.5020    -2.8930 hc         1 PLK       0.031200
     38 H11          2.6670    -0.2520    -3.7220 hn         1 PLK       0.381800
     39 H211         0.5090     0.8140    -3.4500 h1         1 PLK       0.044700
     40 H212         1.1350     1.4750    -1.9340 h1         1 PLK       0.044700
     41 H21          0.4750     1.7990    -6.1270 ho         1 PLK       0.385000
     42 H251         3.0950     4.2880    -7.5880 hc         1 PLK       0.027033
     43 H252         1.4410     3.6640    -7.5090 hc         1 PLK       0.027033
     44 H253         2.8010     2.5460    -7.6850 hc         1 PLK       0.027033
     45 H26          3.9670     4.9920    -3.2450 h4         1 PLK       0.069100
     46 H281         1.9580     3.2350    -1.0670 h1         1 PLK       0.043200
     47 H282         3.4200     2.2540    -1.2330 h1         1 PLK       0.043200
@<TRIPOS>BOND
     1     1     2 1
     2     2     3 1
     3     2     4 1
     4     4     5 1
     5     5     6 1
     6     5    10 1
     7     6     7 1
     8     7     8 1
     9     7     9 1
    10    10    11 1
    11    11    12 1
    12    12    13 ar
    13    12    19 ar
    14    13    14 1
    15    13    15 ar
    16    15    16 1
    17    15    17 ar
    18    17    18 ar
    19    18    19 ar
    20    19    20 1
    21    20    21 1
    22    21    22 1
    23    22    23 1
    24    22    24 1
    25    22    25 1
    26     1    26 1
    27     1    27 1
    28     1    28 1
    29     2    29 1
    30     3    30 1
    31     3    31 1
    32     3    32 1
    33     4    33 1
    34     4    34 1
    35     5    35 1
    36     6    36 1
    37     6    37 1
    38    10    38 1
    39    11    39 1
    40    11    40 1
    41    14    41 1
    42    16    42 1
    43    16    43 1
    44    16    44 1
    45    18    45 1
    46    20    46 1
    47    20    47 1
@<TRIPOS>SUBSTRUCTURE
     1 PLK         1 TEMP              0 ****  ****    0 ROOT
