@<TRIPOS>MOLECULE
PLM
   49    48     1     0     0
SMALL
bcc


@<TRIPOS>ATOM
      1 C1          0.0460    0.0000    0.0400 c         1 PLM      0.907600
      2 O1          1.3090   -0.0010   -0.0560 o         1 PLM     -0.854800
      3 O2         -0.5730    0.0000    1.1430 o         1 PLM     -0.854800
      4 C2         -0.7550    0.0020   -1.2730 c3        1 PLM     -0.193400
      5 C3         -2.2450    0.0030   -1.0370 c3        1 PLM     -0.062400
      6 C4         -3.0230    0.0050   -2.3360 c3        1 PLM     -0.079400
      7 C5         -4.5160    0.0060   -2.0880 c3        1 PLM     -0.078400
      8 C6         -5.2950    0.0080   -3.3860 c3        1 PLM     -0.078400
      9 C7         -6.7880    0.0090   -3.1350 c3        1 PLM     -0.079400
     10 C8         -7.5670    0.0110   -4.4330 c3        1 PLM     -0.078400
     11 C9         -9.0590    0.0120   -4.1800 c3        1 PLM     -0.079400
     12 CA         -9.8380    0.0140   -5.4780 c3        1 PLM     -0.078400
     13 CB        -11.3300    0.0150   -5.2250 c3        1 PLM     -0.079400
     14 CC        -12.1090    0.0170   -6.5230 c3        1 PLM     -0.078400
     15 CD        -13.6010    0.0180   -6.2700 c3        1 PLM     -0.079400
     16 CE        -14.3790    0.0200   -7.5680 c3        1 PLM     -0.079400
     17 CF        -15.8720    0.0210   -7.3160 c3        1 PLM     -0.080400
     18 CG        -16.6510    0.0230   -8.6050 c3        1 PLM     -0.092100
     19 H21        -0.4560    0.9050   -1.8630 hc        1 PLM      0.018700
     20 H22        -0.4580   -0.9000   -1.8650 hc        1 PLM      0.018700
     21 H31        -2.5180    0.9020   -0.4240 hc        1 PLM      0.044700
     22 H32        -2.5200   -0.8960   -0.4260 hc        1 PLM      0.044700
     23 H41        -2.7430    0.9080   -2.9420 hc        1 PLM      0.024700
     24 H42        -2.7440   -0.8960   -2.9430 hc        1 PLM      0.024700
     25 H51        -4.7930    0.9080   -1.4810 hc        1 PLM      0.036700
     26 H52        -4.7950   -0.8960   -1.4830 hc        1 PLM      0.036700
     27 H61        -5.0170   -0.8940   -3.9920 hc        1 PLM      0.033700
     28 H62        -5.0160    0.9110   -3.9910 hc        1 PLM      0.033700
     29 H71        -7.0670   -0.8940   -2.5300 hc        1 PLM      0.037700
     30 H72        -7.0660    0.9110   -2.5280 hc        1 PLM      0.037700
     31 H81        -7.2870    0.9140   -5.0370 hc        1 PLM      0.036700
     32 H82        -7.2880   -0.8910   -5.0390 hc        1 PLM      0.036700
     33 H91        -9.3370    0.9140   -3.5730 hc        1 PLM      0.038700
     34 H92        -9.3380   -0.8910   -3.5750 hc        1 PLM      0.038700
     35 HA1        -9.5580    0.9170   -6.0820 hc        1 PLM      0.037700
     36 HA2        -9.5600   -0.8880   -6.0850 hc        1 PLM      0.037700
     37 HB1       -11.6080    0.9170   -4.6180 hc        1 PLM      0.038700
     38 HB2       -11.6090   -0.8880   -4.6210 hc        1 PLM      0.038700
     39 HC1       -11.8290    0.9200   -7.1280 hc        1 PLM      0.038700
     40 HC2       -11.8310   -0.8850   -7.1300 hc        1 PLM      0.038700
     41 HD1       -13.8790    0.9200   -5.6630 hc        1 PLM      0.038700
     42 HD2       -13.8800   -0.8850   -5.6650 hc        1 PLM      0.038700
     43 HE1       -14.1000    0.9230   -8.1720 hc        1 PLM      0.038700
     44 HE2       -14.1020   -0.8820   -8.1750 hc        1 PLM      0.038700
     45 HF1       -16.1470    0.9230   -6.7080 hc        1 PLM      0.037700
     46 HF2       -16.1490   -0.8820   -6.7100 hc        1 PLM      0.037700
     47 HG1       -16.4070    0.9280   -9.2120 hc        1 PLM      0.031033
     48 HG2       -17.7490    0.0240   -8.3970 hc        1 PLM      0.031033
     49 HG3       -16.4090   -0.8810   -9.2140 hc        1 PLM      0.031033
@<TRIPOS>BOND
     1    1    2 1   
     2    1    3 1   
     3    1    4 1   
     4    4    5 1   
     5    4   19 1   
     6    4   20 1   
     7    5    6 1   
     8    5   21 1   
     9    5   22 1   
    10    6    7 1   
    11    6   23 1   
    12    6   24 1   
    13    7    8 1   
    14    7   25 1   
    15    7   26 1   
    16    8    9 1   
    17    8   27 1   
    18    8   28 1   
    19    9   10 1   
    20    9   29 1   
    21    9   30 1   
    22   10   11 1   
    23   10   31 1   
    24   10   32 1   
    25   11   12 1   
    26   11   33 1   
    27   11   34 1   
    28   12   13 1   
    29   12   35 1   
    30   12   36 1   
    31   13   14 1   
    32   13   37 1   
    33   13   38 1   
    34   14   15 1   
    35   14   39 1   
    36   14   40 1   
    37   15   16 1   
    38   15   41 1   
    39   15   42 1   
    40   16   17 1   
    41   16   43 1   
    42   16   44 1   
    43   17   18 1   
    44   17   45 1   
    45   17   46 1   
    46   18   47 1   
    47   18   48 1   
    48   18   49 1   
@<TRIPOS>SUBSTRUCTURE
     1 PLM         1 TEMP              0 ****  ****    0 ROOT
