@<TRIPOS>MOLECULE
molecule
   49    48     1     0     0
SMALL
bcc


@<TRIPOS>ATOM
      1 C1           0.0000     0.0000     0.0000 c          1 PLM       0.891600
      2 O1           1.3420     0.0000     0.0000 o          1 PLM      -0.858300
      3 O2          -0.6030     0.0000     1.0460 o          1 PLM      -0.858300
      4 C2          -0.7540     0.0030    -1.3040 c3         1 PLM      -0.183400
      5 C3          -2.2580     0.0030    -1.0260 c3         1 PLM      -0.063400
      6 C4          -3.0230     0.0050    -2.3490 c3         1 PLM      -0.088400
      7 C5          -4.5270     0.0060    -2.0710 c3         1 PLM      -0.081400
      8 C6          -5.2930     0.0080    -3.3960 c3         1 PLM      -0.083400
      9 C7          -6.7960     0.0090    -3.1160 c3         1 PLM      -0.082400
     10 C8          -7.5600     0.0110    -4.4400 c3         1 PLM      -0.082400
     11 C9          -9.0650     0.0120    -4.1610 c3         1 PLM      -0.082400
     12 CA          -9.8300     0.0140    -5.4850 c3         1 PLM      -0.082400
     13 CB         -11.3350     0.0150    -5.2060 c3         1 PLM      -0.082400
     14 CC         -12.1000     0.0170    -6.5300 c3         1 PLM      -0.082400
     15 CD         -13.6030     0.0180    -6.2510 c3         1 PLM      -0.082400
     16 CE         -14.3690     0.0200    -7.5760 c3         1 PLM      -0.081400
     17 CF         -15.8720     0.0210    -7.2970 c3         1 PLM      -0.084400
     18 CG         -16.6380     0.0230    -8.6200 c3         1 PLM      -0.092100
     19 H21         -0.4910     0.8880    -1.8710 hc         1 PLM       0.026700
     20 H22         -0.4920    -0.8810    -1.8740 hc         1 PLM       0.026700
     21 H31         -2.5190     0.8870    -0.4570 hc         1 PLM       0.044700
     22 H32         -2.5200    -0.8820    -0.4590 hc         1 PLM       0.044700
     23 H41         -2.7610     0.8890    -2.9170 hc         1 PLM       0.028700
     24 H42         -2.7630    -0.8790    -2.9180 hc         1 PLM       0.028700
     25 H51         -4.7870     0.8910    -1.5020 hc         1 PLM       0.038700
     26 H52         -4.7890    -0.8780    -1.5030 hc         1 PLM       0.038700
     27 H61         -5.0310    -0.8760    -3.9650 hc         1 PLM       0.036200
     28 H62         -5.0300     0.8930    -3.9630 hc         1 PLM       0.036200
     29 H71         -7.0570     0.8920    -2.5470 hc         1 PLM       0.039700
     30 H72         -7.0590    -0.8770    -2.5500 hc         1 PLM       0.039700
     31 H81         -7.2980     0.8970    -5.0060 hc         1 PLM       0.038700
     32 H82         -7.2990    -0.8720    -5.0090 hc         1 PLM       0.038700
     33 H91         -9.3260     0.8960    -3.5920 hc         1 PLM       0.039700
     34 H92         -9.3270    -0.8730    -3.5940 hc         1 PLM       0.039700
     35 HA1         -9.5670     0.8980    -6.0530 hc         1 PLM       0.039700
     36 HA2         -9.5690    -0.8710    -6.0540 hc         1 PLM       0.039700
     37 HB1        -11.5970    -0.8690    -4.6390 hc         1 PLM       0.040700
     38 HB2        -11.5950     0.9000    -4.6370 hc         1 PLM       0.040700
     39 HC1        -11.8380    -0.8670    -7.0990 hc         1 PLM       0.039700
     40 HC2        -11.8370     0.9020    -7.0980 hc         1 PLM       0.039700
     41 HD1        -13.8650    -0.8680    -5.6840 hc         1 PLM       0.040700
     42 HD2        -13.8640     0.9010    -5.6810 hc         1 PLM       0.040700
     43 HE1        -14.1080    -0.8630    -8.1450 hc         1 PLM       0.040700
     44 HE2        -14.1070     0.9050    -8.1420 hc         1 PLM       0.040700
     45 HF1        -16.1340     0.9050    -6.7280 hc         1 PLM       0.039700
     46 HF2        -16.1350    -0.8640    -6.7300 hc         1 PLM       0.039700
     47 HG1        -17.7030     0.0230    -8.4220 hc         1 PLM       0.030700
     48 HG2        -16.3760     0.9070    -9.1880 hc         1 PLM       0.030700
     49 HG3        -16.3770    -0.8620    -9.1900 hc         1 PLM       0.030700
@<TRIPOS>BOND
     1     1     2 1
     2     1     3 1
     3     1     4 1
     4     4     5 1
     5     4    19 1
     6     4    20 1
     7     5     6 1
     8     5    21 1
     9     5    22 1
    10     6     7 1
    11     6    23 1
    12     6    24 1
    13     7     8 1
    14     7    25 1
    15     7    26 1
    16     8     9 1
    17     8    27 1
    18     8    28 1
    19     9    10 1
    20     9    29 1
    21     9    30 1
    22    10    11 1
    23    10    31 1
    24    10    32 1
    25    11    12 1
    26    11    33 1
    27    11    34 1
    28    12    13 1
    29    12    35 1
    30    12    36 1
    31    13    14 1
    32    13    37 1
    33    13    38 1
    34    14    15 1
    35    14    39 1
    36    14    40 1
    37    15    16 1
    38    15    41 1
    39    15    42 1
    40    16    17 1
    41    16    43 1
    42    16    44 1
    43    17    18 1
    44    17    45 1
    45    17    46 1
    46    18    47 1
    47    18    48 1
    48    18    49 1
@<TRIPOS>SUBSTRUCTURE
     1 PLM         1 TEMP              0 ****  ****    0 ROOT
