@<TRIPOS>MOLECULE
PLO
   55    58     1     0     0
SMALL
bcc


@<TRIPOS>ATOM
      1 C1          0.0550   -0.2130   -0.1950 c3        1 PLO     -0.070400
      2 C2          1.5340    0.0850   -0.1130 c3        1 PLO     -0.075400
      3 C3          1.9420    0.3240    1.3350 c3        1 PLO      0.145100
      4 O3          3.3480    0.5450    1.3330 oh        1 PLO     -0.600800
      5 C4          1.5850   -0.8830    2.1980 c3        1 PLO     -0.076200
      6 C5          0.1530   -1.2720    2.0520 c2        1 PLO     -0.105400
      7 C6         -0.5940   -1.5000    3.1430 c2        1 PLO     -0.167200
      8 C7         -2.0120   -1.9130    3.1150 c3        1 PLO     -0.042200
      9 C8         -2.4410   -2.4210    1.7460 c3        1 PLO     -0.047700
     10 C9         -1.9150   -1.4820    0.6500 c3        1 PLO     -0.048700
     11 C10        -0.3700   -1.4280    0.6450 c3        1 PLO      0.000200
     12 C11        -2.4770   -1.8260   -0.7260 c3        1 PLO     -0.074400
     13 C12        -3.9880   -1.9900   -0.7610 c3        1 PLO     -0.066400
     14 C13        -4.4350   -2.9970    0.2850 c3        1 PLO     -0.038000
     15 C14        -3.9510   -2.4650    1.6540 c3        1 PLO     -0.061700
     16 C15        -4.7360   -3.2820    2.6710 c3        1 PLO     -0.073400
     17 C16        -6.0910   -3.5280    2.0010 c3        1 PLO     -0.075400
     18 C17        -5.9610   -3.0880    0.5310 c3        1 PLO     -0.164700
     19 C18        -3.9060   -4.3830   -0.0460 c3        1 PLO     -0.091100
     20 C19         0.2250   -2.6960    0.0370 c3        1 PLO     -0.084100
     21 C20        -6.6700   -4.0160   -0.4210 c         1 PLO      0.576100
     22 C21        -7.1980   -3.3730   -1.6650 c3        1 PLO     -0.204100
     23 O20        -6.8320   -5.2200   -0.1940 o         1 PLO     -0.534100
     24 H11        -0.5210    0.6870    0.1500 hc        1 PLO      0.044700
     25 H12        -0.2150   -0.3980   -1.2680 hc        1 PLO      0.044700
     26 H21         1.7760    0.9950   -0.7200 hc        1 PLO      0.055700
     27 H22         2.1320   -0.7670   -0.5290 hc        1 PLO      0.055700
     28 H3          1.4260    1.2420    1.7340 h1        1 PLO      0.035700
     29 HO3         3.6140    0.6460    2.2540 ho        1 PLO      0.398000
     30 H41         1.8210   -0.6480    3.2710 hc        1 PLO      0.052200
     31 H42         2.2370   -1.7480    1.8990 hc        1 PLO      0.052200
     32 H6         -0.1670   -1.3740    4.1520 ha        1 PLO      0.120000
     33 H71        -2.1910   -2.7190    3.8770 hc        1 PLO      0.049700
     34 H72        -2.6490   -1.0340    3.4120 hc        1 PLO      0.049700
     35 H8         -2.0160   -3.4510    1.5990 hc        1 PLO      0.061700
     36 H9         -2.2800   -0.4460    0.9120 hc        1 PLO      0.047700
     37 H111       -2.1960   -1.0100   -1.4430 hc        1 PLO      0.044200
     38 H112       -2.0090   -2.7740   -1.1010 hc        1 PLO      0.044200
     39 H121       -4.4840   -1.0030   -0.5730 hc        1 PLO      0.039700
     40 H122       -4.2920   -2.3330   -1.7850 hc        1 PLO      0.039700
     41 H14        -4.3160   -1.3970    1.7420 hc        1 PLO      0.045700
     42 H151       -4.2190   -4.2490    2.8890 hc        1 PLO      0.045700
     43 H152       -4.8490   -2.7280    3.6340 hc        1 PLO      0.045700
     44 H161       -6.8960   -2.9400    2.5050 hc        1 PLO      0.055700
     45 H162       -6.3650   -4.6110    2.0590 hc        1 PLO      0.055700
     46 H17        -6.4030   -2.0610    0.4100 hc        1 PLO      0.061700
     47 H181       -2.7910   -4.4100   -0.0370 hc        1 PLO      0.043700
     48 H182       -4.2880   -5.1280    0.6940 hc        1 PLO      0.043700
     49 H183       -4.2570   -4.6880   -1.0630 hc        1 PLO      0.043700
     50 H191       -0.2660   -3.6040    0.4610 hc        1 PLO      0.038367
     51 H192        0.0900   -2.6980   -1.0710 hc        1 PLO      0.038367
     52 H193        1.3200   -2.7550    0.2500 hc        1 PLO      0.038367
     53 H211       -8.0710   -2.7270   -1.4020 hc        1 PLO      0.063367
     54 H212       -7.5320   -4.1450   -2.4000 hc        1 PLO      0.063367
     55 H213       -6.4090   -2.7360   -2.1320 hc        1 PLO      0.063367
@<TRIPOS>BOND
     1    1    2 1   
     2    1   11 1   
     3    1   24 1   
     4    1   25 1   
     5    2    3 1   
     6    2   26 1   
     7    2   27 1   
     8    3    4 1   
     9    3    5 1   
    10    3   28 1   
    11    4   29 1   
    12    5    6 1   
    13    5   30 1   
    14    5   31 1   
    15    6    7 2   
    16    6   11 1   
    17    7    8 1   
    18    7   32 1   
    19    8    9 1   
    20    8   33 1   
    21    8   34 1   
    22    9   10 1   
    23    9   15 1   
    24    9   35 1   
    25   10   11 1   
    26   10   12 1   
    27   10   36 1   
    28   11   20 1   
    29   12   13 1   
    30   12   37 1   
    31   12   38 1   
    32   13   14 1   
    33   13   39 1   
    34   13   40 1   
    35   14   15 1   
    36   14   18 1   
    37   14   19 1   
    38   15   16 1   
    39   15   41 1   
    40   16   17 1   
    41   16   42 1   
    42   16   43 1   
    43   17   18 1   
    44   17   44 1   
    45   17   45 1   
    46   18   21 1   
    47   18   46 1   
    48   19   47 1   
    49   19   48 1   
    50   19   49 1   
    51   20   50 1   
    52   20   51 1   
    53   20   52 1   
    54   21   22 1   
    55   21   23 2   
    56   22   53 1   
    57   22   54 1   
    58   22   55 1   
@<TRIPOS>SUBSTRUCTURE
     1 PLO         1 TEMP              0 ****  ****    0 ROOT
