@<TRIPOS>MOLECULE
PLP
   24    24     1     0     0
SMALL
bcc


@<TRIPOS>ATOM
      1 N1         -0.0830    0.0350   -0.1020 nb        1 PLP     -0.647000
      2 C2          1.2770   -0.0150   -0.0830 ca        1 PLP      0.287600
      3 C2A         2.0440   -0.0150   -1.3620 c3        1 PLP     -0.109400
      4 C3          1.9990   -0.0690    1.1350 ca        1 PLP      0.062800
      5 O3          3.3670   -0.1160    1.0070 oh        1 PLP     -0.533100
      6 C4          1.3090   -0.0720    2.3730 ca        1 PLP     -0.294600
      7 C4A         1.9890   -0.1260    3.6660 c         1 PLP      0.598500
      8 O4A         3.2240   -0.1730    3.8040 o         1 PLP     -0.636100
      9 C5         -0.0970   -0.0190    2.3400 ca        1 PLP     -0.041600
     10 C6         -0.7280    0.0320    1.0620 ca        1 PLP      0.360200
     11 C5A        -0.9430   -0.0170    3.5730 c3        1 PLP      0.188700
     12 O4P        -2.2850    0.0390    3.2920 os        1 PLP     -0.556200
     13 P          -3.1320    0.0350    4.8430 p5        1 PLP      1.307900
     14 O1P        -2.5240    1.2660    5.4590 o         1 PLP     -0.923833
     15 O2P        -4.5720    0.0960    4.4330 o         1 PLP     -0.923833
     16 O3P        -2.6160   -1.2650    5.4020 o         1 PLP     -0.923833
     17 H2A1        1.3780    0.0430   -2.2560 hc        1 PLP      0.028033
     18 H2A2        2.7430    0.8580   -1.3740 hc        1 PLP      0.028033
     19 H2A3        2.6560   -0.9480   -1.4270 hc        1 PLP      0.028033
     20 HO3         3.7660   -0.1490    1.8900 ho        1 PLP      0.443000
     21 H4A         1.3220   -0.1220    4.5610 h4        1 PLP      0.053200
     22 H6         -1.8400    0.0730    1.0480 h4        1 PLP      0.079100
     23 H5A1       -0.7270   -0.9570    4.1720 h1        1 PLP      0.062700
     24 H5A2       -0.6600    0.8770    4.2140 h1        1 PLP      0.062700
@<TRIPOS>BOND
     1    1    2 ar  
     2    1   10 ar  
     3    2    3 1   
     4    2    4 ar  
     5    3   17 1   
     6    3   18 1   
     7    3   19 1   
     8    4    5 1   
     9    4    6 ar  
    10    5   20 1   
    11    6    7 1   
    12    6    9 ar  
    13    7    8 2   
    14    7   21 1   
    15    9   10 ar  
    16    9   11 1   
    17   10   22 1   
    18   11   12 1   
    19   11   23 1   
    20   11   24 1   
    21   12   13 1   
    22   13   14 1   
    23   13   15 1   
    24   13   16 1   
@<TRIPOS>SUBSTRUCTURE
     1 PLP         1 TEMP              0 ****  ****    0 ROOT
