@<TRIPOS>MOLECULE
molecule
   24    24     1     0     0
SMALL
bcc


@<TRIPOS>ATOM
      1 N1           0.0000     0.0000     0.0000 nb         1 PLP      -0.690000
      2 C2           1.3160     0.0000     0.0000 ca         1 PLP       0.339600
      3 C2A          2.0610    -0.0070    -1.3100 c3         1 PLP      -0.124400
      4 C3           2.0270     0.0000     1.1930 ca         1 PLP       0.017800
      5 O3           3.3830     0.0010     1.1880 oh         1 PLP      -0.514100
      6 C4           1.3150     0.0120     2.4060 ca         1 PLP      -0.222600
      7 C4A          2.0200     0.0210     3.6980 c          1 PLP       0.593500
      8 O4A          3.2320     0.0210     3.7270 o          1 PLP      -0.567100
      9 C5          -0.0850     0.0120     2.3480 ca         1 PLP      -0.101600
     10 C6          -0.7040     0.0060     1.1150 ca         1 PLP       0.424200
     11 C5A         -0.9030     0.0180     3.6130 c3         1 PLP       0.180700
     12 O4P         -2.2920     0.0150     3.2830 os         1 PLP      -0.536200
     13 P           -3.1020     0.0230     4.6740 p5         1 PLP       1.138900
     14 O1P         -2.7480     1.2360     5.4440 o          1 PLP      -0.900833
     15 O2P         -4.6840     0.0210     4.3750 o          1 PLP      -0.900833
     16 O3P         -2.7160    -1.2860     5.5260 o          1 PLP      -0.900833
     17 H2A1         2.6090    -0.9360    -1.4090 hc         1 PLP       0.034367
     18 H2A2         2.7530     0.8260    -1.3360 hc         1 PLP       0.034367
     19 H2A3         1.3550     0.0850    -2.1270 hc         1 PLP       0.034367
     20 HO3          3.6980    -0.8880     1.1890 ho         1 PLP       0.409000
     21 H4A          1.4560     0.0650     4.6220 h4         1 PLP       0.036200
     22 H6          -1.7860     0.0060     1.0620 h4         1 PLP       0.078100
     23 H5A1        -0.6690    -0.8630     4.1980 h1         1 PLP       0.068700
     24 H5A2        -0.6710     0.9060     4.1890 h1         1 PLP       0.068700
@<TRIPOS>BOND
     1     1     2 ar
     2     1    10 ar
     3     2     3 1
     4     2     4 ar
     5     3    17 1
     6     3    18 1
     7     3    19 1
     8     4     5 1
     9     4     6 ar
    10     5    20 1
    11     6     7 1
    12     6     9 ar
    13     7     8 2
    14     7    21 1
    15     9    10 ar
    16     9    11 1
    17    10    22 1
    18    11    12 1
    19    11    23 1
    20    11    24 1
    21    12    13 1
    22    13    14 1
    23    13    15 1
    24    13    16 1
@<TRIPOS>SUBSTRUCTURE
     1 PLP         1 TEMP              0 ****  ****    0 ROOT
