@<TRIPOS>MOLECULE
molecule
   12    12     1     0     0
SMALL
bcc


@<TRIPOS>ATOM
      1 O5           0.0000     0.0000     0.0000 o          1 PLQ      -0.489100
      2 C5           1.2140     0.0000     0.0000 c          1 PLQ       0.540500
      3 C6           1.9530     0.0000     1.2790 cc         1 PLQ      -0.186200
      4 C4           1.9530    -0.0080    -1.2790 cc         1 PLQ      -0.186200
      5 C3           3.2930    -0.0080    -1.2790 cd         1 PLQ      -0.186200
      6 C2           4.0320    -0.0000     0.0000 c          1 PLQ       0.540500
      7 O2           5.2460    -0.0000     0.0000 o          1 PLQ      -0.489100
      8 C1           3.2930    -0.0000     1.2790 cd         1 PLQ      -0.186200
      9 H6           1.4110     0.0000     2.2170 ha         1 PLQ       0.160500
     10 H4           1.4110    -0.0140    -2.2170 ha         1 PLQ       0.160500
     11 H3           3.8340    -0.0140    -2.2170 ha         1 PLQ       0.160500
     12 H1           3.8340     0.0030     2.2170 ha         1 PLQ       0.160500
@<TRIPOS>BOND
     1     1     2 2
     2     2     3 1
     3     2     4 1
     4     3     8 2
     5     3     9 1
     6     4     5 2
     7     4    10 1
     8     5     6 1
     9     5    11 1
    10     6     7 2
    11     6     8 1
    12     8    12 1
@<TRIPOS>SUBSTRUCTURE
     1 PLQ         1 TEMP              0 ****  ****    0 ROOT
