@<TRIPOS>MOLECULE
PLR
   25    25     1     0     0
SMALL
bcc


@<TRIPOS>ATOM
      1 N1         -0.0760    0.0710   -0.0960 nb        1 PLR     -0.677000
      2 C2          1.2820   -0.0210   -0.0800 ca        1 PLR      0.315600
      3 C2A         2.0470   -0.0230   -1.3590 c3        1 PLR     -0.110400
      4 C3          1.9930   -0.1040    1.1390 ca        1 PLR     -0.016200
      5 O3          3.3720   -0.1910    1.0410 oh        1 PLR     -0.529100
      6 C4          1.3100   -0.0940    2.3750 ca        1 PLR     -0.163300
      7 C4A         2.0610   -0.1810    3.6480 c3        1 PLR     -0.050800
      8 C5         -0.0880   -0.0010    2.3470 ca        1 PLR     -0.089600
      9 C6         -0.7190    0.0790    1.0740 ca        1 PLR      0.380200
     10 C5A        -0.9210    0.0160    3.5920 c3        1 PLR      0.204700
     11 O4P        -2.2660    0.1050    3.3270 os        1 PLR     -0.560200
     12 P          -3.1090    0.1110    4.8730 p5        1 PLR      1.309900
     13 O1P        -2.4850    1.3230    5.5120 o         1 PLR     -0.928500
     14 O2P        -4.5470    0.2130    4.4570 o         1 PLR     -0.928500
     15 O3P        -2.6420   -1.2060    5.4360 o         1 PLR     -0.928500
     16 H2A1        2.5770    0.9540   -1.4780 hc        1 PLR      0.025700
     17 H2A2        2.8170   -0.8340   -1.3300 hc        1 PLR      0.025700
     18 H2A3        1.3870   -0.1820   -2.2460 hc        1 PLR      0.025700
     19 HO3         3.7180   -0.3070    1.9360 ho        1 PLR      0.404000
     20 H4A1        1.3690   -0.1190    4.5260 hc        1 PLR      0.039367
     21 H4A2        2.8010    0.6540    3.7260 hc        1 PLR      0.039367
     22 H4A3        2.6160   -1.1510    3.7100 hc        1 PLR      0.039367
     23 H6         -1.8270    0.1520    1.0600 h4        1 PLR      0.073100
     24 H5A1       -0.6060    0.8980    4.2310 h1        1 PLR      0.049700
     25 H5A2       -0.7170   -0.9310    4.1820 h1        1 PLR      0.049700
@<TRIPOS>BOND
     1    1    2 ar  
     2    1    9 ar  
     3    2    3 1   
     4    2    4 ar  
     5    3   16 1   
     6    3   17 1   
     7    3   18 1   
     8    4    5 1   
     9    4    6 ar  
    10    5   19 1   
    11    6    7 1   
    12    6    8 ar  
    13    7   20 1   
    14    7   21 1   
    15    7   22 1   
    16    8    9 ar  
    17    8   10 1   
    18    9   23 1   
    19   10   11 1   
    20   10   24 1   
    21   10   25 1   
    22   11   12 1   
    23   12   13 1   
    24   12   14 1   
    25   12   15 1   
@<TRIPOS>SUBSTRUCTURE
     1 PLR         1 TEMP              0 ****  ****    0 ROOT
