@<TRIPOS>MOLECULE
molecule
   25    25     1     0     0
SMALL
bcc


@<TRIPOS>ATOM
      1 N1           0.0000     0.0000     0.0000 nb         1 PLR      -0.715000
      2 C2           1.3180     0.0000     0.0000 ca         1 PLR       0.356600
      3 C2A          2.0630    -0.0060    -1.3100 c3         1 PLR      -0.124400
      4 C3           2.0260     0.0000     1.1920 ca         1 PLR      -0.049200
      5 O3           3.3850    -0.0010     1.1860 oh         1 PLR      -0.531100
      6 C4           1.3250     0.0110     2.3940 ca         1 PLR      -0.095300
      7 C4A          2.0540     0.0170     3.7130 c3         1 PLR      -0.044800
      8 C5          -0.0600     0.0100     2.3480 ca         1 PLR      -0.147600
      9 C6          -0.6950     0.0050     1.1210 ca         1 PLR       0.439200
     10 C5A         -0.8640     0.0160     3.6220 c3         1 PLR       0.189700
     11 O4P         -2.2570     0.0130     3.3070 os         1 PLR      -0.541200
     12 P           -3.0510     0.0200     4.7070 p5         1 PLR       1.146900
     13 O1P         -2.6890     1.2320     5.4740 o          1 PLR      -0.905500
     14 O2P         -4.6370     0.0170     4.4240 o          1 PLR      -0.905500
     15 O3P         -2.6570    -1.2890     5.5530 o          1 PLR      -0.905500
     16 H2A1         1.3570     0.0780    -2.1280 hc         1 PLR       0.031367
     17 H2A2         2.7500     0.8320    -1.3390 hc         1 PLR       0.031367
     18 H2A3         2.6180    -0.9310    -1.4060 hc         1 PLR       0.031367
     19 HO3          3.6990    -0.8910     1.1790 ho         1 PLR       0.395000
     20 H4A1         3.1210     0.0830     3.5350 hc         1 PLR       0.045700
     21 H4A2         1.8340    -0.8970     4.2520 hc         1 PLR       0.045700
     22 H4A3         1.7330     0.8690     4.2990 hc         1 PLR       0.045700
     23 H6          -1.7770     0.0050     1.0790 h4         1 PLR       0.074100
     24 H5A1        -0.6250     0.9030     4.1960 h1         1 PLR       0.064700
     25 H5A2        -0.6240    -0.8660     4.2040 h1         1 PLR       0.064700
@<TRIPOS>BOND
     1     1     2 ar
     2     1     9 ar
     3     2     3 1
     4     2     4 ar
     5     3    16 1
     6     3    17 1
     7     3    18 1
     8     4     5 1
     9     4     6 ar
    10     5    19 1
    11     6     7 1
    12     6     8 ar
    13     7    20 1
    14     7    21 1
    15     7    22 1
    16     8     9 ar
    17     8    10 1
    18     9    23 1
    19    10    11 1
    20    10    24 1
    21    10    25 1
    22    11    12 1
    23    12    13 1
    24    12    14 1
    25    12    15 1
@<TRIPOS>SUBSTRUCTURE
     1 PLR         1 TEMP              0 ****  ****    0 ROOT
