@<TRIPOS>MOLECULE
PLS
   36    36     1     0     0
SMALL
bcc


@<TRIPOS>ATOM
      1 N            0.0000     0.0000     0.0000 n7         1 PLS      -0.577200
      2 CA           1.4680     0.0000     0.0000 c3         1 PLS      -0.000500
      3 CB           1.9790     0.0000     1.4410 c3         1 PLS       0.234400
      4 OG           3.4090     0.0010     1.4400 oh         1 PLS      -0.583800
      5 C            1.9700    -1.2300    -0.7110 c          1 PLS       0.967600
      6 O            3.0260    -1.2000    -1.2990 o          1 PLS      -0.910800
      7 OXT          1.2450    -2.3590    -0.6930 o          1 PLS      -0.910800
      8 N1          -4.6610     0.8080    -1.3930 nb         1 PLS      -0.618000
      9 C2          -4.0240    -0.2060    -1.9440 ca         1 PLS       0.246600
     10 C2A         -4.8090    -1.3010    -2.6200 c3         1 PLS      -0.015400
     11 C3          -2.6400    -0.2800    -1.9020 ca         1 PLS      -0.001200
     12 O3          -1.9890    -1.3280    -2.4710 oh         1 PLS      -0.473100
     13 C4          -1.9280     0.7400    -1.2790 ca         1 PLS      -0.104300
     14 C4A         -0.4230     0.7040    -1.2180 c3         1 PLS       0.195100
     15 C5          -2.6370     1.7870    -0.7140 ca         1 PLS      -0.118600
     16 C6          -4.0170     1.7860    -0.7920 ca         1 PLS       0.375200
     17 C5A         -1.9120     2.9120    -0.0240 c3         1 PLS       0.261700
     18 O4P         -2.8610     3.8590     0.4700 os         1 PLS      -0.464200
     19 P           -2.0220     5.0270     1.1920 p5         1 PLS       0.668900
     20 O1P         -1.1120     5.6600     0.2110 o          1 PLS      -0.765167
     21 O2P         -3.0340     6.1340     1.7750 o          1 PLS      -0.765167
     22 O3P         -1.1580     4.4010     2.3970 o          1 PLS      -0.765167
     23 HN          -0.3340    -0.9430    -0.0270 hn         1 PLS       0.292800
     24 HA           1.8290     0.8840    -0.5110 h1         1 PLS       0.038700
     25 HB1          1.6190    -0.8850     1.9520 h1         1 PLS      -0.009800
     26 HB2          1.6180     0.8840     1.9520 h1         1 PLS      -0.009800
     27 HOG          3.7240     0.2140     2.3030 ho         1 PLS       0.346000
     28 H2A1        -4.5890    -1.3020    -3.6800 hc         1 PLS      -0.011967
     29 H2A2        -5.8690    -1.1310    -2.4700 hc         1 PLS      -0.011967
     30 H2A3        -4.5340    -2.2590    -2.1930 hc         1 PLS      -0.011967
     31 HO3         -1.9490    -1.2040    -3.4050 ho         1 PLS       0.371000
     32 H4A1        -0.0380     0.1840    -2.0870 h1         1 PLS       0.018200
     33 H4A2        -0.0370     1.7160    -1.2030 h1         1 PLS       0.018200
     34 H6          -4.5760     2.6030    -0.3510 h4         1 PLS       0.022100
     35 H5A1        -1.3340     2.5160     0.8030 h1         1 PLS       0.037200
     36 H5A2        -1.2480     3.3990    -0.7280 h1         1 PLS       0.037200
@<TRIPOS>BOND
     1     1     2 1   
     2     1    14 1   
     3     1    23 1   
     4     2     3 1   
     5     2     5 1   
     6     2    24 1   
     7     3     4 1   
     8     3    25 1   
     9     3    26 1   
    10     4    27 1   
    11     5     6 1   
    12     5     7 1   
    13     8     9 ar  
    14     8    16 ar  
    15     9    10 1   
    16     9    11 ar  
    17    10    28 1   
    18    10    29 1   
    19    10    30 1   
    20    11    12 1   
    21    11    13 ar  
    22    12    31 1   
    23    13    14 1   
    24    13    15 ar  
    25    14    32 1   
    26    14    33 1   
    27    15    16 ar  
    28    15    17 1   
    29    16    34 1   
    30    17    18 1   
    31    17    35 1   
    32    17    36 1   
    33    18    19 1   
    34    19    20 1   
    35    19    21 1   
    36    19    22 1   
@<TRIPOS>SUBSTRUCTURE
     1 PLS         1 TEMP              0 ****  ****    0 ROOT
