@<TRIPOS>MOLECULE
molecule
   47    49     1     0     0
SMALL
bcc


@<TRIPOS>ATOM
      1 N1           0.0000     0.0000     0.0000 nb         1 PLT      -0.721000
      2 C2           1.3170     0.0000     0.0000 ca         1 PLT       0.304600
      3 C2A          2.0620    -0.0050    -1.3110 c3         1 PLT      -0.123400
      4 C3           2.0270     0.0000     1.1920 ca         1 PLT       0.009800
      5 O3           3.3840    -0.0010     1.1870 oh         1 PLT      -0.486100
      6 C4           1.3180     0.0110     2.4040 ca         1 PLT      -0.124900
      7 C4A          2.0250     0.0170     3.6980 ce         1 PLT       0.427800
      8 C5          -0.0810     0.0110     2.3480 ca         1 PLT      -0.129600
      9 C6          -0.7030     0.0050     1.1160 ca         1 PLT       0.406200
     10 C5A         -0.8960     0.0160     3.6140 c3         1 PLT       0.185700
     11 O4P         -2.2870     0.0140     3.2850 os         1 PLT      -0.551200
     12 P           -3.0950     0.0190     4.6780 p5         1 PLT       1.155900
     13 O1P         -2.7380     1.2320     5.4490 o          1 PLT      -0.911167
     14 O2P         -4.6770     0.0180     4.3810 o          1 PLT      -0.911167
     15 O3P         -2.7060    -1.2910     5.5290 o          1 PLT      -0.911167
     16 N            3.3170     0.0170     3.7280 n2         1 PLT      -0.539900
     17 CA           4.0210     0.0230     5.0130 c3         1 PLT       0.018500
     18 C            4.8840     1.2550     5.1080 c          1 PLT       0.905600
     19 O            5.1110     1.7530     6.1840 o          1 PLT      -0.852300
     20 OXT          5.4030     1.7970     3.9950 o          1 PLT      -0.852300
     21 CB           4.8980    -1.2250     5.1200 c3         1 PLT       0.020800
     22 CG           4.0340    -2.4550     5.0260 cc         1 PLT      -0.131400
     23 CD1          3.7010    -3.1140     3.9060 cd         1 PLT      -0.102100
     24 NE1          2.9040    -4.1820     4.2100 na         1 PLT      -0.189400
     25 CE2          2.7010    -4.2410     5.5710 ca         1 PLT      -0.031200
     26 CZ2          1.9890    -5.1050     6.3970 ca         1 PLT      -0.141000
     27 CH2          1.9760    -4.8950     7.7580 ca         1 PLT      -0.128000
     28 CZ3          2.6680    -3.8290     8.3160 ca         1 PLT      -0.191000
     29 CE3          3.3730    -2.9680     7.5240 ca         1 PLT      -0.049000
     30 CD2          3.4040    -3.1650     6.1420 ca         1 PLT      -0.077800
     31 H2A1         2.7730    -0.8220    -1.3190 hc         1 PLT       0.025367
     32 H2A2         1.3580    -0.1310    -2.1250 hc         1 PLT       0.025367
     33 H2A3         2.5880     0.9340    -1.4300 hc         1 PLT       0.025367
     34 HO3          3.6970     0.7910     0.7820 ho         1 PLT       0.406000
     35 H4A          1.4610     0.0220     4.6240 h4         1 PLT       0.002800
     36 H6          -1.7850     0.0040     1.0640 h4         1 PLT       0.062100
     37 H5A1        -0.6630     0.9030     4.1900 h1         1 PLT       0.071700
     38 H5A2        -0.6620    -0.8660     4.1980 h1         1 PLT       0.071700
     39 HA           3.2980     0.0270     5.8200 h1         1 PLT       0.037700
     40 HB1          5.4180    -1.2210     6.0710 hc         1 PLT       0.045700
     41 HB2          5.6200    -1.2290     4.3130 hc         1 PLT       0.045700
     42 HD1          4.0190    -2.8410     2.9070 h4         1 PLT       0.179000
     43 HNE          2.5260    -4.8260     3.5430 hn         1 PLT       0.281700
     44 HZ2          1.5280    -6.0280     6.0660 ha         1 PLT       0.105000
     45 HH2          1.4800    -5.5990     8.4150 ha         1 PLT       0.103000
     46 HZ3          2.6470    -3.7770     9.3980 ha         1 PLT       0.105000
     47 HE3          3.9970    -2.4080     8.2080 ha         1 PLT       0.125000
@<TRIPOS>BOND
     1     1     2 ar
     2     1     9 ar
     3     2     3 1
     4     2     4 ar
     5     3    31 1
     6     3    32 1
     7     3    33 1
     8     4     5 1
     9     4     6 ar
    10     5    34 1
    11     6     7 1
    12     6     8 ar
    13     7    16 2
    14     7    35 1
    15     8     9 ar
    16     8    10 1
    17     9    36 1
    18    10    11 1
    19    10    37 1
    20    10    38 1
    21    11    12 1
    22    12    13 1
    23    12    14 1
    24    12    15 1
    25    16    17 1
    26    17    18 1
    27    17    21 1
    28    17    39 1
    29    18    19 1
    30    18    20 1
    31    21    22 1
    32    21    40 1
    33    21    41 1
    34    22    23 2
    35    22    30 1
    36    23    24 1
    37    23    42 1
    38    24    25 1
    39    24    43 1
    40    25    26 ar
    41    25    30 ar
    42    26    27 ar
    43    26    44 1
    44    27    28 ar
    45    27    45 1
    46    28    29 ar
    47    28    46 1
    48    29    30 ar
    49    29    47 1
@<TRIPOS>SUBSTRUCTURE
     1 PLT         1 TEMP              0 ****  ****    0 ROOT
