@<TRIPOS>MOLECULE
PLT
   47    50     1     0     0
SMALL
bcc


@<TRIPOS>ATOM
      1 N1           0.0000     0.0000     0.0000 n2         1 PLT      -0.067000
      2 C2           1.3170     0.0000     0.0000 c2         1 PLT      -0.205000
      3 C2A          2.0620    -0.0050    -1.3110 c3         1 PLT      -0.040000
      4 C3           2.0270     0.0000     1.1920 c2         1 PLT       0.029000
      5 O3           3.3840    -0.0010     1.1870 oh         1 PLT      -0.239000
      6 C4           1.3180     0.0110     2.4040 c3         1 PLT      -0.200000
      7 C4A          2.0250     0.0170     3.6980 c2         1 PLT      -0.348000
      8 C5          -0.0810     0.0110     2.3480 c2         1 PLT       0.014000
      9 C6          -0.7030     0.0050     1.1160 c2         1 PLT      -0.114000
     10 C5A         -0.8960     0.0160     3.6140 c3         1 PLT       0.105000
     11 O4P         -2.2870     0.0140     3.2850 os         1 PLT      -0.632000
     12 P           -3.0950     0.0190     4.6780 p5         1 PLT       0.900500
     13 O1P         -2.7380     1.2320     5.4490 o          1 PLT      -0.761167
     14 O2P         -4.6770     0.0180     4.3810 o          1 PLT      -0.761167
     15 O3P         -2.7060    -1.2910     5.5290 o          1 PLT      -0.761167
     16 N            3.3170     0.0170     3.7280 n2         1 PLT       0.035000
     17 CA           4.0210     0.0230     5.0130 c3         1 PLT      -0.096000
     18 C            4.8840     1.2550     5.1080 c2         1 PLT       0.418000
     19 O            5.1110     1.7530     6.1840 o          1 PLT      -0.637500
     20 OXT          5.4030     1.7970     3.9950 o          1 PLT      -0.637500
     21 CB           4.8980    -1.2250     5.1200 c3         1 PLT      -0.008000
     22 CG           4.0340    -2.4550     5.0260 c2         1 PLT      -0.115000
     23 CD1          3.7010    -3.1140     3.9060 c2         1 PLT      -0.274000
     24 NE1          2.9040    -4.1820     4.2100 na         1 PLT       0.319000
     25 CE2          2.7010    -4.2410     5.5710 ca         1 PLT      -0.163000
     26 CZ2          1.9890    -5.1050     6.3970 ca         1 PLT      -0.110000
     27 CH2          1.9760    -4.8950     7.7580 ca         1 PLT      -0.104000
     28 CZ3          2.6680    -3.8290     8.3160 ca         1 PLT      -0.179000
     29 CE3          3.3730    -2.9680     7.5240 ca         1 PLT      -0.002000
     30 CD2          3.4040    -3.1650     6.1420 ca         1 PLT      -0.059000
     31 H2A1         1.3580    -0.1300    -2.1250 hc         1 PLT       0.028000
     32 H2A2         2.7730    -0.8220    -1.3190 hc         1 PLT       0.028000
     33 H2A3         2.5890     0.9340    -1.4300 hc         1 PLT       0.028000
     34 HO3          3.6970     0.8260     0.8600 ho         1 PLT       0.206000
     35 H4A          1.8910    -0.8610     3.0780 DU         1 PLT       0.311000
     36 H6          -1.7850     0.0040     1.0640 h4         1 PLT       0.164000
     37 H5A1        -0.6630     0.9030     4.1900 h1         1 PLT       0.091000
     38 H5A2        -0.6620    -0.8660     4.1980 h1         1 PLT       0.091000
     39 HA           3.2980     0.0270     5.8200 h1         1 PLT       0.087000
     40 HB1          5.4170    -1.2210     6.0710 hc         1 PLT       0.053500
     41 HB2          5.6210    -1.2290     4.3140 hc         1 PLT       0.053500
     42 HD1          4.0190    -2.8410     2.9070 h4         1 PLT       0.149000
     43 HNE          2.5260    -4.8260     3.5430 hn         1 PLT       0.051000
     44 HZ2          1.4280    -5.9700     6.0650 ha         1 PLT       0.086000
     45 HH2          1.4250    -5.5610     8.4100 ha         1 PLT       0.080000
     46 HZ3          2.5970    -3.7130     9.3910 ha         1 PLT       0.087000
     47 HE3          3.9290    -2.3280     8.1970 ha         1 PLT       0.099000
@<TRIPOS>BOND
     1     1     2 1   
     2     1     9 1   
     3     2     3 1   
     4     2     4 1   
     5     3    31 1   
     6     3    32 1   
     7     3    33 1   
     8     4     5 1   
     9     4     6 1   
    10     5    34 1   
    11     6     7 1   
    12     6     8 1   
    13     6    35 1   
    14     7    16 1   
    15     7    35 1   
    16     8     9 1   
    17     8    10 1   
    18     9    36 1   
    19    10    11 1   
    20    10    37 1   
    21    10    38 1   
    22    11    12 1   
    23    12    13 1   
    24    12    14 1   
    25    12    15 1   
    26    16    17 1   
    27    17    18 1   
    28    17    21 1   
    29    17    39 1   
    30    18    19 1   
    31    18    20 1   
    32    21    22 1   
    33    21    40 1   
    34    21    41 1   
    35    22    23 1   
    36    22    30 1   
    37    23    24 1   
    38    23    42 1   
    39    24    25 1   
    40    24    43 1   
    41    25    26 1   
    42    25    30 1   
    43    26    27 1   
    44    26    44 1   
    45    27    28 1   
    46    27    45 1   
    47    28    29 1   
    48    28    46 1   
    49    29    30 1   
    50    29    47 1   
@<TRIPOS>SUBSTRUCTURE
     1 PLT         1 TEMP              0 ****  ****    0 ROOT
