@<TRIPOS>MOLECULE
PLU
   23    22     1     0     0
SMALL
bcc


@<TRIPOS>ATOM
      1 CA           1.5290     0.0000     0.0000 c3         1 PLU      -0.108700
      2 CB           0.0000     0.0000     0.0000 c3         1 PLU       0.007600
      3 CG          -0.5110    -1.3150     0.5900 c3         1 PLU      -0.083700
      4 CD1         -2.0350    -1.2610     0.7130 c3         1 PLU       0.010400
      5 CD2         -0.1140    -2.4730    -0.3260 c3         1 PLU       0.010400
      6 N            2.0190     0.0000     1.3860 nz         1 PLU       0.113400
      7 P            2.1380     1.4870    -0.8590 p5         1 PLU       0.380700
      8 O1           3.7430     1.5500    -0.7510 o          1 PLU      -0.681833
      9 O2           1.7070     1.4260    -2.4090 o          1 PLU      -0.681833
     10 O3           1.5530     2.6920    -0.2320 o          1 PLU      -0.681833
     11 HA           1.8900    -0.8850    -0.5100 hx         1 PLU       0.075700
     12 HB1         -0.3610     0.1040    -1.0160 hc         1 PLU       0.053700
     13 HB2         -0.3610     0.8280     0.5980 hc         1 PLU       0.053700
     14 HG          -0.0750    -1.4640     1.5700 hc         1 PLU      -0.018300
     15 HD11        -2.3150    -0.4500     1.3740 hc         1 PLU       0.000533
     16 HD12        -2.4700    -1.0970    -0.2650 hc         1 PLU       0.000533
     17 HD13        -2.3970    -2.1990     1.1170 hc         1 PLU       0.000533
     18 HD21         0.9570    -2.6230    -0.2740 hc         1 PLU       0.000533
     19 HD22        -0.3980    -2.2410    -1.3450 hc         1 PLU       0.000533
     20 HD23        -0.6210    -3.3760    -0.0070 hc         1 PLU       0.000533
     21 HN1          1.2400     0.0210     2.0140 hn         1 PLU       0.182467
     22 HN2          2.5570    -0.8270     1.5490 hn         1 PLU       0.182467
     23 HN3          2.5920     0.8070     1.5370 hn         1 PLU       0.182467
@<TRIPOS>BOND
     1     1     2 1   
     2     1     6 1   
     3     1     7 1   
     4     1    11 1   
     5     2     3 1   
     6     2    12 1   
     7     2    13 1   
     8     3     4 1   
     9     3     5 1   
    10     3    14 1   
    11     4    15 1   
    12     4    16 1   
    13     4    17 1   
    14     5    18 1   
    15     5    19 1   
    16     5    20 1   
    17     6    21 1   
    18     6    22 1   
    19     6    23 1   
    20     7     8 1   
    21     7     9 1   
    22     7    10 1   
@<TRIPOS>SUBSTRUCTURE
     1 PLU         1 TEMP              0 ****  ****    0 ROOT
