@<TRIPOS>MOLECULE
molecule
   39    39     1     0     0
SMALL
bcc


@<TRIPOS>ATOM
      1 N            0.0000     0.0000     0.0000 n7         1 PLV      -0.729200
      2 CA           1.4690     0.0000     0.0000 c3         1 PLV       0.043500
      3 CB           1.9800     0.0000     1.4420 c3         1 PLV       0.145400
      4 OG           1.6020    -1.2210     2.0810 os         1 PLV      -0.333600
      5 C            1.9720    -1.2300    -0.7110 c          1 PLV       0.877600
      6 OXT          3.2910    -1.4420    -0.8330 o          1 PLV      -0.803800
      7 O            1.1870    -2.0260    -1.1690 o          1 PLV      -0.803800
      8 N1          -4.6610     0.6800    -1.4610 nb         1 PLV      -0.726000
      9 C2          -4.0240     1.7130    -0.9450 ca         1 PLV       0.320600
     10 C2A         -4.8090     2.8950    -0.4360 c3         1 PLV      -0.118400
     11 C3          -2.6390     1.7230    -0.8660 ca         1 PLV      -0.046200
     12 O3          -1.9870     2.7900    -0.3340 oh         1 PLV      -0.531100
     13 C4          -1.9280     0.6260    -1.3400 ca         1 PLV      -0.080300
     14 C4A         -0.4230     0.5950    -1.2740 c3         1 PLV       0.202100
     15 C5          -2.6360    -0.4350    -1.8800 ca         1 PLV      -0.105600
     16 C6          -4.0170    -0.3750    -1.9180 ca         1 PLV       0.413200
     17 C5A         -1.9110    -1.6470    -2.4060 c3         1 PLV       0.175700
     18 O4P         -2.8620    -2.5970    -2.8920 os         1 PLV      -0.565200
     19 P           -2.0220    -3.8580    -3.4370 p5         1 PLV       1.150900
     20 O1P         -1.2560    -4.5640    -2.2080 o          1 PLV      -0.907167
     21 O2P         -3.0240    -4.9150    -4.1220 o          1 PLV      -0.907167
     22 O3P         -1.0320    -3.3980    -4.4360 o          1 PLV      -0.907167
     23 C7           2.1050    -1.1600     3.4180 c3         1 PLV       0.116700
     24 HN          -0.3340     0.5620     0.7580 hn         1 PLV       0.306800
     25 HA           1.8300     0.8850    -0.5110 h1         1 PLV       0.003700
     26 HB1          1.5480     0.8370     1.9780 h1         1 PLV      -0.004800
     27 HB2          3.0590     0.0890     1.4430 h1         1 PLV      -0.004800
     28 H2A1        -5.8690     2.6790    -0.4980 hc         1 PLV       0.021367
     29 H2A2        -4.5400     3.0900     0.5960 hc         1 PLV       0.021367
     30 H2A3        -4.5820     3.7660    -1.0390 hc         1 PLV       0.021367
     31 HO3         -1.9270     3.4750    -0.9790 ho         1 PLV       0.385000
     32 H4A1        -0.0380     0.0020    -2.0950 h1         1 PLV       0.043200
     33 H4A2        -0.0370     1.6050    -1.3470 h1         1 PLV       0.043200
     34 H6          -4.5760    -1.2030    -2.3370 h4         1 PLV       0.067100
     35 H5A1        -1.2510    -1.3510    -3.2130 h1         1 PLV       0.105700
     36 H5A2        -1.3290    -2.0950    -1.6090 h1         1 PLV       0.105700
     37 H71          1.6990    -0.2880     3.9170 h1         1 PLV       0.001700
     38 H72          3.1860    -1.0930     3.3940 h1         1 PLV       0.001700
     39 H73          1.8100    -2.0540     3.9550 h1         1 PLV       0.001700
@<TRIPOS>BOND
     1     1     2 1
     2     1    14 1
     3     1    24 1
     4     2     3 1
     5     2     5 1
     6     2    25 1
     7     3     4 1
     8     3    26 1
     9     3    27 1
    10     4    23 1
    11     5     6 1
    12     5     7 1
    13     8     9 ar
    14     8    16 ar
    15     9    10 1
    16     9    11 ar
    17    10    28 1
    18    10    29 1
    19    10    30 1
    20    11    12 1
    21    11    13 ar
    22    12    31 1
    23    13    14 1
    24    13    15 ar
    25    14    32 1
    26    14    33 1
    27    15    16 ar
    28    15    17 1
    29    16    34 1
    30    17    18 1
    31    17    35 1
    32    17    36 1
    33    18    19 1
    34    19    20 1
    35    19    21 1
    36    19    22 1
    37    23    37 1
    38    23    38 1
    39    23    39 1
@<TRIPOS>SUBSTRUCTURE
     1 PLV         1 TEMP              0 ****  ****    0 ROOT
