@<TRIPOS>MOLECULE
molecule
  140   139     1     0     0
SMALL
bcc


@<TRIPOS>ATOM
      1 C23          0.0000     0.0000     0.0000 c3         1 PLX      -0.092100
      2 C22          1.5300     0.0000     0.0000 c3         1 PLX      -0.084400
      3 C21          2.0400     0.0000     1.4420 c3         1 PLX      -0.081400
      4 C20          3.5700    -0.0000     1.4420 c3         1 PLX      -0.082400
      5 C19          4.0810    -0.0000     2.8840 c3         1 PLX      -0.082400
      6 C18          5.6100    -0.0000     2.8840 c3         1 PLX      -0.082400
      7 C17          6.1200    -0.0000     4.3260 c3         1 PLX      -0.082400
      8 C16          7.6500    -0.0000     4.3260 c3         1 PLX      -0.082400
      9 C15          8.1610    -0.0000     5.7690 c3         1 PLX      -0.082400
     10 C14          9.6910    -0.0000     5.7690 c3         1 PLX      -0.082400
     11 C13         10.2010    -0.0010     7.2110 c3         1 PLX      -0.082400
     12 C12         11.7310    -0.0010     7.2110 c3         1 PLX      -0.082400
     13 C11         12.2410    -0.0010     8.6540 c3         1 PLX      -0.081400
     14 C10         13.7710    -0.0010     8.6530 c3         1 PLX      -0.082400
     15 C9          14.2810    -0.0010    10.0950 c3         1 PLX      -0.078400
     16 C8          15.8110    -0.0010    10.0950 c3         1 PLX      -0.084400
     17 C7          16.3210    -0.0010    11.5380 c3         1 PLX      -0.083400
     18 C6          17.8510    -0.0010    11.5380 c3         1 PLX       0.340900
     19 O7          18.3270     1.2200    10.9680 oh         1 PLX      -0.607800
     20 O6          18.3280    -0.1180    12.8790 os         1 PLX      -0.388600
     21 C4          19.7470    -0.2420    12.9840 c3         1 PLX       0.143100
     22 C3          20.3730     1.1500    13.1040 c3         1 PLX       0.209400
     23 O4          19.9360     1.7640    14.3180 os         1 PLX      -0.573200
     24 P1          20.3040     3.2810    14.7140 p5         1 PLX       1.349800
     25 O1          19.5520     3.6770    16.0810 os         1 PLX      -0.571200
     26 C2          19.6010     4.9880    16.6460 c3         1 PLX       0.218400
     27 C1          18.8870     4.9890    17.9990 c3         1 PLX       0.079800
     28 N1          18.8350     6.3590    18.5250 n4         1 PLX      -0.574800
     29 C1C         17.9970     7.1880    17.6470 c3         1 PLX       0.095100
     30 C1B         18.2620     6.3430    19.8770 c3         1 PLX       0.095100
     31 C1A         20.1930     6.9160    18.5750 c3         1 PLX       0.095100
     32 O2          19.8730     4.1920    13.6320 o          1 PLX      -0.809500
     33 C5          20.0990    -1.0680    14.2230 c3         1 PLX       0.149400
     34 O8          19.6630    -0.3760    15.3950 os         1 PLX      -0.363600
     35 C24         20.0430    -1.0100    16.6190 c3         1 PLX       0.333900
     36 O9          19.3750    -2.2680    16.7300 oh         1 PLX      -0.628800
     37 C25         19.6510    -0.1180    17.7980 c3         1 PLX      -0.072400
     38 C26         20.1350    -0.7540    19.1020 c3         1 PLX      -0.085400
     39 C27         19.6400     0.0750    20.2890 c3         1 PLX      -0.077400
     40 C28         20.0210    -0.6260    21.5950 c3         1 PLX      -0.083400
     41 C29         19.5250     0.2030    22.7810 c3         1 PLX      -0.081400
     42 C30         19.9050    -0.4980    24.0870 c3         1 PLX      -0.082400
     43 C31         19.4100     0.3310    25.2740 c3         1 PLX      -0.081400
     44 C32         19.7900    -0.3710    26.5800 c3         1 PLX      -0.082400
     45 C33         19.2950     0.4580    27.7670 c3         1 PLX      -0.081400
     46 C34         19.6760    -0.2430    29.0720 c3         1 PLX      -0.082400
     47 C35         19.1810     0.5860    30.2600 c3         1 PLX      -0.082400
     48 C36         19.5600    -0.1150    31.5640 c3         1 PLX      -0.082400
     49 C37         19.0650     0.7140    32.7520 c3         1 PLX      -0.081400
     50 C38         19.4450     0.0130    34.0570 c3         1 PLX      -0.084400
     51 C39         18.9500     0.8410    35.2450 c3         1 PLX      -0.092100
     52 O3          21.8960     3.4100    14.9220 o          1 PLX      -0.809500
     53 H231        -0.3610    -0.0170    -1.0210 hc         1 PLX       0.032367
     54 H232        -0.3610    -0.8760     0.5250 hc         1 PLX       0.032367
     55 H233        -0.3610     0.8930     0.4960 hc         1 PLX       0.032367
     56 H221         1.8910    -0.8840    -0.5110 hc         1 PLX       0.039700
     57 H222         1.8910     0.8840    -0.5110 hc         1 PLX       0.039700
     58 H211         1.6790     0.8840     1.9520 hc         1 PLX       0.040700
     59 H212         1.6790    -0.8840     1.9520 hc         1 PLX       0.040700
     60 H201         3.9310    -0.8840     0.9310 hc         1 PLX       0.040700
     61 H202         3.9310     0.8850     0.9310 hc         1 PLX       0.040700
     62 H191         3.7200    -0.8850     3.3950 hc         1 PLX       0.040700
     63 H192         3.7200     0.8840     3.3950 hc         1 PLX       0.040700
     64 H181         5.9710     0.8840     2.3730 hc         1 PLX       0.040700
     65 H182         5.9710    -0.8850     2.3730 hc         1 PLX       0.040700
     66 H171         5.7590    -0.8850     4.8370 hc         1 PLX       0.040700
     67 H172         5.7590     0.8840     4.8370 hc         1 PLX       0.040700
     68 H161         8.0110     0.8840     3.8160 hc         1 PLX       0.040700
     69 H162         8.0110    -0.8850     3.8160 hc         1 PLX       0.040700
     70 H151         7.8000     0.8840     6.2800 hc         1 PLX       0.040700
     71 H152         7.8000    -0.8850     6.2800 hc         1 PLX       0.040700
     72 H141        10.0520     0.8840     5.2580 hc         1 PLX       0.041200
     73 H142        10.0520    -0.8850     5.2580 hc         1 PLX       0.041200
     74 H131         9.8400     0.8840     7.7220 hc         1 PLX       0.040700
     75 H132         9.8400    -0.8850     7.7210 hc         1 PLX       0.040700
     76 H121        12.0920    -0.8850     6.7000 hc         1 PLX       0.041200
     77 H122        12.0920     0.8840     6.7000 hc         1 PLX       0.041200
     78 H111        11.8800     0.8830     9.1650 hc         1 PLX       0.040700
     79 H112        11.8800    -0.8860     9.1640 hc         1 PLX       0.040700
     80 H101        14.1330    -0.8850     8.1420 hc         1 PLX       0.040700
     81 H102        14.1320     0.8840     8.1430 hc         1 PLX       0.040700
     82 H91         13.9200    -0.8850    10.6060 hc         1 PLX       0.042700
     83 H92         13.9200     0.8840    10.6060 hc         1 PLX       0.042700
     84 H81         16.1720     0.8840     9.5850 hc         1 PLX       0.041200
     85 H82         16.1720    -0.8850     9.5840 hc         1 PLX       0.041200
     86 H71         15.9600     0.8830    12.0490 hc         1 PLX       0.062700
     87 H72         15.9600    -0.8860    12.0490 hc         1 PLX       0.062700
     88 H6          18.2120    -0.8380    10.9520 h2         1 PLX       0.003700
     89 HO7         18.6850     1.0490    10.1130 ho         1 PLX       0.398000
     90 H4          20.1330    -0.7360    12.1000 h1         1 PLX       0.029700
     91 H31         21.4530     1.0610    13.1130 h1         1 PLX       0.043700
     92 H32         20.0680     1.7570    12.2610 h1         1 PLX       0.043700
     93 H21         20.6340     5.2840    16.7830 h1         1 PLX       0.043200
     94 H22         19.1110     5.6870    15.9790 h1         1 PLX       0.043200
     95 H11         17.8800     4.6100    17.8760 hx         1 PLX       0.103700
     96 H12         19.4280     4.3560    18.6930 hx         1 PLX       0.103700
     97 H1C1        17.6920     8.0820    18.1780 hx         1 PLX       0.095144
     98 H1C2        17.1190     6.6270    17.3500 hx         1 PLX       0.095144
     99 H1C3        18.5630     7.4670    16.7660 hx         1 PLX       0.095144
    100 H1B1        18.1710     7.3580    20.2420 hx         1 PLX       0.095144
    101 H1B2        17.2830     5.8800    19.8480 hx         1 PLX       0.095144
    102 H1B3        18.9090     5.7780    20.5370 hx         1 PLX       0.095144
    103 H1A1        20.4980     7.2140    17.5790 hx         1 PLX       0.095144
    104 H1A2        20.8780     6.1660    18.9520 hx         1 PLX       0.095144
    105 H1A3        20.2060     7.7780    19.2300 hx         1 PLX       0.095144
    106 H51         19.6050    -2.0300    14.1670 h1         1 PLX       0.023200
    107 H52         21.1710    -1.2140    14.2670 h1         1 PLX       0.023200
    108 H24         21.1150    -1.1680    16.6260 h2         1 PLX       0.015700
    109 HO9         20.0110    -2.9640    16.7160 ho         1 PLX       0.395000
    110 H251        18.5730    -0.0110    17.8270 hc         1 PLX       0.064200
    111 H252        20.1070     0.8580    17.6800 hc         1 PLX       0.064200
    112 H261        21.2180    -0.7830    19.1090 hc         1 PLX       0.044700
    113 H262        19.7460    -1.7620    19.1790 hc         1 PLX       0.044700
    114 H271        18.5630     0.1770    20.2350 hc         1 PLX       0.035200
    115 H272        20.0970     1.0570    20.2600 hc         1 PLX       0.035200
    116 H281        21.0980    -0.7270    21.6500 hc         1 PLX       0.044200
    117 H282        19.5640    -1.6080    21.6240 hc         1 PLX       0.044200
    118 H291        18.4480     0.3050    22.7260 hc         1 PLX       0.035200
    119 H292        19.9830     1.1850    22.7520 hc         1 PLX       0.035200
    120 H301        19.4480    -1.4800    24.1160 hc         1 PLX       0.043700
    121 H302        20.9820    -0.6000    24.1420 hc         1 PLX       0.043700
    122 H311        18.3330     0.4330    25.2190 hc         1 PLX       0.037700
    123 H312        19.8680     1.3120    25.2450 hc         1 PLX       0.037700
    124 H321        19.3330    -1.3520    26.6090 hc         1 PLX       0.043200
    125 H322        20.8670    -0.4730    26.6350 hc         1 PLX       0.043200
    126 H331        18.2180     0.5600    27.7130 hc         1 PLX       0.039200
    127 H332        19.7520     1.4400    27.7380 hc         1 PLX       0.039200
    128 H341        19.2190    -1.2240    29.1020 hc         1 PLX       0.042200
    129 H342        20.7530    -0.3440    29.1270 hc         1 PLX       0.042200
    130 H351        18.1040     0.6890    30.2040 hc         1 PLX       0.040200
    131 H352        19.6390     1.5680    30.2310 hc         1 PLX       0.040200
    132 H361        19.1020    -1.0960    31.5930 hc         1 PLX       0.041700
    133 H362        20.6370    -0.2170    31.6200 hc         1 PLX       0.041700
    134 H371        17.9880     0.8160    32.6970 hc         1 PLX       0.040200
    135 H372        19.5230     1.6950    32.7230 hc         1 PLX       0.040200
    136 H381        18.9880    -0.9690    34.0870 hc         1 PLX       0.040200
    137 H382        20.5220    -0.0900    34.1120 hc         1 PLX       0.040200
    138 H391        19.2130     0.3410    36.1690 hc         1 PLX       0.032367
    139 H392        17.8740     0.9490    35.1860 hc         1 PLX       0.032367
    140 H393        19.4130     1.8210    35.2190 hc         1 PLX       0.032367
@<TRIPOS>BOND
     1     1     2 1
     2     1    53 1
     3     1    54 1
     4     1    55 1
     5     2     3 1
     6     2    56 1
     7     2    57 1
     8     3     4 1
     9     3    58 1
    10     3    59 1
    11     4     5 1
    12     4    60 1
    13     4    61 1
    14     5     6 1
    15     5    62 1
    16     5    63 1
    17     6     7 1
    18     6    64 1
    19     6    65 1
    20     7     8 1
    21     7    66 1
    22     7    67 1
    23     8     9 1
    24     8    68 1
    25     8    69 1
    26     9    10 1
    27     9    70 1
    28     9    71 1
    29    10    11 1
    30    10    72 1
    31    10    73 1
    32    11    12 1
    33    11    74 1
    34    11    75 1
    35    12    13 1
    36    12    76 1
    37    12    77 1
    38    13    14 1
    39    13    78 1
    40    13    79 1
    41    14    15 1
    42    14    80 1
    43    14    81 1
    44    15    16 1
    45    15    82 1
    46    15    83 1
    47    16    17 1
    48    16    84 1
    49    16    85 1
    50    17    18 1
    51    17    86 1
    52    17    87 1
    53    18    19 1
    54    18    20 1
    55    18    88 1
    56    19    89 1
    57    20    21 1
    58    21    22 1
    59    21    33 1
    60    21    90 1
    61    22    23 1
    62    22    91 1
    63    22    92 1
    64    23    24 1
    65    24    25 1
    66    24    32 1
    67    24    52 1
    68    25    26 1
    69    26    27 1
    70    26    93 1
    71    26    94 1
    72    27    28 1
    73    27    95 1
    74    27    96 1
    75    28    29 1
    76    28    30 1
    77    28    31 1
    78    29    97 1
    79    29    98 1
    80    29    99 1
    81    30   100 1
    82    30   101 1
    83    30   102 1
    84    31   103 1
    85    31   104 1
    86    31   105 1
    87    33    34 1
    88    33   106 1
    89    33   107 1
    90    34    35 1
    91    35    36 1
    92    35    37 1
    93    35   108 1
    94    36   109 1
    95    37    38 1
    96    37   110 1
    97    37   111 1
    98    38    39 1
    99    38   112 1
   100    38   113 1
   101    39    40 1
   102    39   114 1
   103    39   115 1
   104    40    41 1
   105    40   116 1
   106    40   117 1
   107    41    42 1
   108    41   118 1
   109    41   119 1
   110    42    43 1
   111    42   120 1
   112    42   121 1
   113    43    44 1
   114    43   122 1
   115    43   123 1
   116    44    45 1
   117    44   124 1
   118    44   125 1
   119    45    46 1
   120    45   126 1
   121    45   127 1
   122    46    47 1
   123    46   128 1
   124    46   129 1
   125    47    48 1
   126    47   130 1
   127    47   131 1
   128    48    49 1
   129    48   132 1
   130    48   133 1
   131    49    50 1
   132    49   134 1
   133    49   135 1
   134    50    51 1
   135    50   136 1
   136    50   137 1
   137    51   138 1
   138    51   139 1
   139    51   140 1
@<TRIPOS>SUBSTRUCTURE
     1 PLX         1 TEMP              0 ****  ****    0 ROOT
