@<TRIPOS>MOLECULE
molecule
   49    48     1     0     0
SMALL
bcc


@<TRIPOS>ATOM
      1 C1           0.0000     0.0000     0.0000 c          1 PLY       0.567900
      2 O2           1.2070     0.0000     0.0000 o          1 PLY      -0.522100
      3 C2          -0.7540     0.0000     1.3050 c3         1 PLY      -0.204400
      4 C3          -1.7250     1.1820     1.3330 c3         1 PLY      -0.075400
      5 C4          -2.4910     1.1810     2.6580 c3         1 PLY      -0.080400
      6 C5          -3.4620     2.3630     2.6850 c3         1 PLY      -0.082400
      7 C6          -4.2270     2.3630     4.0110 c3         1 PLY      -0.081400
      8 C7          -5.1990     3.5440     4.0380 c3         1 PLY      -0.081400
      9 C8          -5.9640     3.5440     5.3640 c3         1 PLY      -0.082400
     10 C9          -6.9360     4.7250     5.3920 c3         1 PLY      -0.082400
     11 CA          -7.7000     4.7260     6.7170 c3         1 PLY      -0.081400
     12 CB          -8.6730     5.9070     6.7450 c3         1 PLY      -0.082400
     13 CC          -9.4380     5.9070     8.0700 c3         1 PLY      -0.081400
     14 CD         -10.4100     7.0880     8.0980 c3         1 PLY      -0.082400
     15 CE         -11.1740     7.0890     9.4230 c3         1 PLY      -0.081400
     16 CF         -12.1460     8.2700     9.4510 c3         1 PLY      -0.084400
     17 CG         -12.9100     8.2700    10.7750 c3         1 PLY      -0.092100
     18 H11         -0.5410    -0.0290    -0.9380 h4         1 PLY      -0.006800
     19 H21         -0.0540     0.0880     2.1270 hc         1 PLY       0.068200
     20 H22         -1.3090    -0.9260     1.4010 hc         1 PLY       0.068200
     21 H31         -2.4260     1.0930     0.5110 hc         1 PLY       0.045200
     22 H32         -1.1700     2.1070     1.2360 hc         1 PLY       0.045200
     23 H41         -3.0450     0.2550     2.7550 hc         1 PLY       0.044200
     24 H42         -1.7900     1.2700     3.4800 hc         1 PLY       0.044200
     25 H51         -2.9080     3.2880     2.5880 hc         1 PLY       0.042200
     26 H52         -4.1630     2.2730     1.8640 hc         1 PLY       0.042200
     27 H61         -4.7810     1.4370     4.1090 hc         1 PLY       0.042200
     28 H62         -3.5260     2.4520     4.8330 hc         1 PLY       0.042200
     29 H71         -5.8990     3.4550     3.2170 hc         1 PLY       0.041700
     30 H72         -4.6440     4.4700     3.9420 hc         1 PLY       0.041700
     31 H81         -5.2640     3.6330     6.1860 hc         1 PLY       0.041200
     32 H82         -6.5180     2.6180     5.4610 hc         1 PLY       0.041200
     33 H91         -7.6360     4.6350     4.5700 hc         1 PLY       0.041200
     34 H92         -6.3810     5.6510     5.2940 hc         1 PLY       0.041200
     35 HA1         -7.0000     4.8150     7.5380 hc         1 PLY       0.041200
     36 HA2         -8.2540     3.8000     6.8150 hc         1 PLY       0.041200
     37 HB1         -8.1190     6.8330     6.6480 hc         1 PLY       0.040700
     38 HB2         -9.3730     5.8180     5.9240 hc         1 PLY       0.040700
     39 HC1         -9.9920     4.9810     8.1660 hc         1 PLY       0.040700
     40 HC2         -8.7370     5.9960     8.8910 hc         1 PLY       0.040700
     41 HD1        -11.1110     6.9990     7.2770 hc         1 PLY       0.040700
     42 HD2         -9.8560     8.0140     8.0000 hc         1 PLY       0.040700
     43 HE1        -11.7280     6.1630     9.5200 hc         1 PLY       0.040700
     44 HE2        -10.4730     7.1780    10.2440 hc         1 PLY       0.040700
     45 HF1        -12.8470     8.1810     8.6300 hc         1 PLY       0.039700
     46 HF2        -11.5920     9.1960     9.3530 hc         1 PLY       0.039700
     47 HG1        -13.4640     7.3450    10.8730 hc         1 PLY       0.032367
     48 HG2        -13.5980     9.1070    10.7950 hc         1 PLY       0.032367
     49 HG3        -12.2100     8.3600    11.5970 hc         1 PLY       0.032367
@<TRIPOS>BOND
     1     1     2 2
     2     1     3 1
     3     1    18 1
     4     3     4 1
     5     3    19 1
     6     3    20 1
     7     4     5 1
     8     4    21 1
     9     4    22 1
    10     5     6 1
    11     5    23 1
    12     5    24 1
    13     6     7 1
    14     6    25 1
    15     6    26 1
    16     7     8 1
    17     7    27 1
    18     7    28 1
    19     8     9 1
    20     8    29 1
    21     8    30 1
    22     9    10 1
    23     9    31 1
    24     9    32 1
    25    10    11 1
    26    10    33 1
    27    10    34 1
    28    11    12 1
    29    11    35 1
    30    11    36 1
    31    12    13 1
    32    12    37 1
    33    12    38 1
    34    13    14 1
    35    13    39 1
    36    13    40 1
    37    14    15 1
    38    14    41 1
    39    14    42 1
    40    15    16 1
    41    15    43 1
    42    15    44 1
    43    16    17 1
    44    16    45 1
    45    16    46 1
    46    17    47 1
    47    17    48 1
    48    17    49 1
@<TRIPOS>SUBSTRUCTURE
     1 PLY         1 TEMP              0 ****  ****    0 ROOT
