@<TRIPOS>MOLECULE
PLY
   49    48     1     0     0
SMALL
bcc


@<TRIPOS>ATOM
      1 C1          0.0080   -0.0200    0.0040 c         1 PLY      0.564900
      2 O2          1.1370   -0.4990   -0.1050 o         1 PLY     -0.528100
      3 C2         -0.7320    0.0350    1.3040 c3        1 PLY     -0.204400
      4 C3         -1.7160    1.1830    1.3410 c3        1 PLY     -0.076400
      5 C4         -2.4750    1.2070    2.6510 c3        1 PLY     -0.078400
      6 C5         -3.4590    2.3570    2.6920 c3        1 PLY     -0.079400
      7 C6         -4.2180    2.3810    4.0010 c3        1 PLY     -0.079400
      8 C7         -5.2000    3.5330    4.0450 c3        1 PLY     -0.079400
      9 C8         -5.9600    3.5570    5.3530 c3        1 PLY     -0.079400
     10 C9         -6.9400    4.7100    5.3980 c3        1 PLY     -0.079400
     11 CA         -7.7010    4.7340    6.7070 c3        1 PLY     -0.079400
     12 CB         -8.6780    5.8890    6.7530 c3        1 PLY     -0.079400
     13 CC         -9.4390    5.9120    8.0610 c3        1 PLY     -0.079400
     14 CD        -10.4150    7.0690    8.1080 c3        1 PLY     -0.079400
     15 CE        -11.1760    7.0920    9.4160 c3        1 PLY     -0.079400
     16 CF        -12.1520    8.2490    9.4650 c3        1 PLY     -0.080400
     17 CG        -12.9130    8.2760   10.7660 c3        1 PLY     -0.092100
     18 H11        -0.5350    0.3930   -0.8770 h4        1 PLY     -0.006800
     19 H21        -0.0040    0.1210    2.1540 hc        1 PLY      0.074200
     20 H22        -1.2760   -0.9410    1.4330 hc        1 PLY      0.074200
     21 H31        -1.1690    2.1530    1.2060 hc        1 PLY      0.043700
     22 H32        -2.4410    1.0900    0.4890 hc        1 PLY      0.043700
     23 H41        -3.0240    0.2380    2.7860 hc        1 PLY      0.042700
     24 H42        -1.7520    1.3000    3.5030 hc        1 PLY      0.042700
     25 H51        -2.9100    3.3260    2.5580 hc        1 PLY      0.040200
     26 H52        -4.1820    2.2660    1.8390 hc        1 PLY      0.040200
     27 H61        -4.7680    1.4130    4.1350 hc        1 PLY      0.040200
     28 H62        -3.4950    2.4710    4.8540 hc        1 PLY      0.040200
     29 H71        -4.6500    4.5010    3.9120 hc        1 PLY      0.039700
     30 H72        -5.9230    3.4430    3.1910 hc        1 PLY      0.039700
     31 H81        -6.5120    2.5890    5.4860 hc        1 PLY      0.039700
     32 H82        -5.2380    3.6440    6.2070 hc        1 PLY      0.039700
     33 H91        -6.3880    5.6780    5.2660 hc        1 PLY      0.039700
     34 H92        -7.6630    4.6230    4.5440 hc        1 PLY      0.039700
     35 HA1        -6.9780    4.8190    7.5600 hc        1 PLY      0.039700
     36 HA2        -8.2550    3.7670    6.8380 hc        1 PLY      0.039700
     37 HB1        -8.1240    6.8560    6.6220 hc        1 PLY      0.039700
     38 HB2        -9.4010    5.8040    5.8990 hc        1 PLY      0.039700
     39 HC1        -8.7160    5.9950    8.9150 hc        1 PLY      0.039700
     40 HC2        -9.9940    4.9460    8.1910 hc        1 PLY      0.039700
     41 HD1        -9.8600    8.0350    7.9790 hc        1 PLY      0.039700
     42 HD2       -11.1380    6.9860    7.2540 hc        1 PLY      0.039700
     43 HE1       -10.4540    7.1740   10.2710 hc        1 PLY      0.039700
     44 HE2       -11.7330    6.1260    9.5450 hc        1 PLY      0.039700
     45 HF1       -12.8730    8.1660    8.6090 hc        1 PLY      0.038700
     46 HF2       -11.5940    9.2140    9.3350 hc        1 PLY      0.038700
     47 HG1       -12.2130    8.3830   11.6300 hc        1 PLY      0.032700
     48 HG2       -13.4950    7.3330   10.9020 hc        1 PLY      0.032700
     49 HG3       -13.6250    9.1360   10.7810 hc        1 PLY      0.032700
@<TRIPOS>BOND
     1    1    2 2   
     2    1    3 1   
     3    1   18 1   
     4    3    4 1   
     5    3   19 1   
     6    3   20 1   
     7    4    5 1   
     8    4   21 1   
     9    4   22 1   
    10    5    6 1   
    11    5   23 1   
    12    5   24 1   
    13    6    7 1   
    14    6   25 1   
    15    6   26 1   
    16    7    8 1   
    17    7   27 1   
    18    7   28 1   
    19    8    9 1   
    20    8   29 1   
    21    8   30 1   
    22    9   10 1   
    23    9   31 1   
    24    9   32 1   
    25   10   11 1   
    26   10   33 1   
    27   10   34 1   
    28   11   12 1   
    29   11   35 1   
    30   11   36 1   
    31   12   13 1   
    32   12   37 1   
    33   12   38 1   
    34   13   14 1   
    35   13   39 1   
    36   13   40 1   
    37   14   15 1   
    38   14   41 1   
    39   14   42 1   
    40   15   16 1   
    41   15   43 1   
    42   15   44 1   
    43   16   17 1   
    44   16   45 1   
    45   16   46 1   
    46   17   47 1   
    47   17   48 1   
    48   17   49 1   
@<TRIPOS>SUBSTRUCTURE
     1 PLY         1 TEMP              0 ****  ****    0 ROOT
