@<TRIPOS>MOLECULE
PLZ
   39    39     1     0     0
SMALL
bcc


@<TRIPOS>ATOM
      1 N1          0.5900    0.9430   -0.1770 n2        1 PLZ     -0.410000
      2 C2A         2.7080    0.2520   -1.2300 c3        1 PLZ     -0.023900
      3 O3          3.2940   -1.1660    1.0620 oh        1 PLZ     -0.530100
      4 C4A         1.6870   -1.2280    3.3390 c2        1 PLZ     -0.498000
      5 C5          3.1430   -2.2180    5.9280 c3        1 PLZ     -0.088400
      6 C6          2.3530   -3.2810    6.6480 c3        1 PLZ     -0.205400
      7 P          -1.3190    1.4150    5.1860 p5        1 PLZ      1.435800
      8 N9          1.2360   -1.0700    4.6880 n4        1 PLZ     -0.550800
      9 C8          2.3590   -0.9420    5.6630 c3        1 PLZ      0.120800
     10 C1          3.2810   -4.3100    7.3210 c         1 PLZ      0.910600
     11 O2          2.8930   -5.5130    7.3650 o         1 PLZ     -0.856300
     12 O4          4.3760   -3.9120    7.8170 o         1 PLZ     -0.856300
     13 C19         1.2110   -0.5440    2.2210 cc        1 PLZ      0.132000
     14 C13         2.0860   -0.4850    1.0730 cc        1 PLZ     -0.047900
     15 C12         1.7580    0.2460   -0.0760 cd        1 PLZ      0.048800
     16 C16        -0.2430    0.8640    0.8700 cd        1 PLZ      0.049000
     17 C15        -0.0290    0.1280    2.0510 cc        1 PLZ     -0.273200
     18 C5M        -1.2110    0.0240    2.9640 c3        1 PLZ      0.243600
     19 O4P        -1.5440    1.2410    3.5680 os        1 PLZ     -0.602200
     20 O2P         0.1810    2.0480    5.0390 oh        1 PLZ     -0.792400
     21 O1P        -1.0700    0.0680    5.7560 o         1 PLZ     -0.835500
     22 O3P        -2.2660    2.4320    5.6730 o         1 PLZ     -0.835500
     23 H2A1        2.6210    1.1850   -1.8370 hc        1 PLZ      0.028700
     24 H2A2        3.7560    0.1580   -0.8530 hc        1 PLZ      0.028700
     25 H2A3        2.4940   -0.6240   -1.8920 hc        1 PLZ      0.028700
     26 HO3         3.6840   -1.0380    1.9410 ho        1 PLZ      0.408000
     27 H4A1        0.2920    2.6100    4.2830 ho        1 PLZ      0.434000
     28 H4A2        2.4770   -1.9830    3.2380 hx        1 PLZ      0.144000
     29 H51         3.5520   -2.6330    4.9700 hc        1 PLZ      0.061700
     30 H52         4.0250   -1.9400    6.5710 hc        1 PLZ      0.061700
     31 H61         1.7260   -2.8200    7.4540 hc        1 PLZ      0.030700
     32 H62         1.6680   -3.8130    5.9420 hc        1 PLZ      0.030700
     33 HN9         0.6560   -1.8670    4.9730 hn        1 PLZ      0.442300
     34 H81         1.9020   -0.5750    6.6270 hx        1 PLZ      0.069200
     35 H82         3.0520   -0.1500    5.2640 hx        1 PLZ      0.069200
     36 H16        -1.1860    1.4330    0.7660 h4        1 PLZ      0.135000
     37 H5M1       -1.0930   -0.7800    3.7390 h1        1 PLZ      0.024700
     38 H5M2       -2.1020   -0.2650    2.3250 h1        1 PLZ      0.024700
     39 H92         0.6440   -0.2170    4.7800 hn        1 PLZ      0.442300
@<TRIPOS>BOND
     1    1   15 1
     2    1   16 1
     3    2   15 1
     4    2   23 1
     5    2   24 1
     6    2   25 1
     7    3   14 1
     8    3   26 1
     9    4    8 1
    10    4   13 2
    11    4   28 1
    12    5    6 1
    13    5    9 1
    14    5   29 1
    15    5   30 1
    16    6   10 1
    17    6   31 1
    18    6   32 1
    19    7   19 1
    20    7   20 1
    21    7   21 1
    22    7   22 1
    23    8    9 1
    24    8   33 1
    25    8   39 1
    26    9   34 1
    27    9   35 1
    28   10   11 1
    29   10   12 1
    30   13   14 1
    31   13   17 1
    32   14   15 2
    33   16   17 2
    34   16   36 1
    35   17   18 1
    36   18   19 1
    37   18   37 1
    38   18   38 1
    39   20   27 1
@<TRIPOS>SUBSTRUCTURE
     1 PLZ         1 TEMP              0 ****  ****    0 ROOT
