@<TRIPOS>MOLECULE
PM1
   41    44     1     0     0
SMALL
bcc


@<TRIPOS>ATOM
      1 C1           0.0000     0.0000     0.0000 cc         1 PM1      -0.172600
      2 C2           1.3780     0.0000     0.0000 cd         1 PM1      -0.213300
      3 N3           2.0630     0.0000     1.1630 na         1 PM1       0.677700
      4 C4           1.4070    -0.0010     2.3630 cd         1 PM1      -0.219300
      5 C5           0.0000    -0.0010     2.3940 cd         1 PM1      -0.041000
      6 C6          -0.6990    -0.0010     1.2290 cc         1 PM1      -0.098000
      7 C10          3.4230     0.0060     1.4420 cd         1 PM1      -0.562300
      8 C11          3.5350    -0.0000     2.8350 cc         1 PM1       0.235600
      9 N12          2.3080    -0.0010     3.3440 nc         1 PM1      -0.273600
     10 C13          4.4770     0.0160     0.5090 c          1 PM1       0.697900
     11 C14          5.0930     1.2970     0.1020 ca         1 PM1      -0.186600
     12 C15          6.2120     1.3030    -0.7320 ca         1 PM1      -0.046500
     13 C16          6.7810     2.5020    -1.1080 ca         1 PM1      -0.118500
     14 C17          6.2460     3.6960    -0.6630 ca         1 PM1      -0.069000
     15 C18          5.1370     3.6970     0.1650 ca         1 PM1      -0.118500
     16 C19          4.5540     2.5050     0.5440 ca         1 PM1      -0.046500
     17 C23         -0.7410    -0.0010    -1.2750 c          1 PM1       0.665300
     18 C24         -2.2120     0.1130    -1.2730 ca         1 PM1      -0.224600
     19 C25         -3.0060    -1.0300    -1.1320 ca         1 PM1       0.165900
     20 C26         -4.3830    -0.9130    -1.1270 ca         1 PM1      -0.149000
     21 C27         -4.9760     0.3280    -1.2720 ca         1 PM1      -0.032000
     22 C28         -4.1990     1.4620    -1.4180 ca         1 PM1      -0.149000
     23 C29         -2.8210     1.3640    -1.4200 ca         1 PM1       0.165900
     24 O33         -0.1400    -0.0950    -2.3280 o          1 PM1      -0.525100
     25 O34          4.8840    -1.0330     0.0380 o          1 PM1      -0.547100
     26 N35          4.7170     0.0000     3.5580 nv         1 PM1      -0.462600
     27 F36         -2.4290    -2.2430    -0.9900 f          1 PM1      -0.117400
     28 F39         -2.0630     2.4740    -1.5620 f          1 PM1      -0.117400
     29 H2           1.9160     0.0010    -0.9400 h4         1 PM1       0.164000
     30 H5          -0.5230    -0.0020     3.3430 ha         1 PM1       0.128000
     31 H6          -1.7820    -0.0010     1.2420 ha         1 PM1       0.122000
     32 H15          6.6340     0.3680    -1.0820 ha         1 PM1       0.116000
     33 H16          7.6500     2.5070    -1.7560 ha         1 PM1       0.106500
     34 H17          6.6980     4.6350    -0.9600 ha         1 PM1       0.102000
     35 H18          4.7210     4.6360     0.5090 ha         1 PM1       0.106500
     36 H19          3.6860     2.5070     1.1920 ha         1 PM1       0.116000
     37 H26         -5.0000    -1.7960    -1.0150 ha         1 PM1       0.128000
     38 H27         -6.0560     0.4110    -1.2690 ha         1 PM1       0.113000
     39 H28         -4.6720     2.4300    -1.5310 ha         1 PM1       0.128000
     40 H351         5.3720    -0.7480     3.4470 hn         1 PM1       0.275800
     41 H352         4.9090     0.7420     4.2020 hn         1 PM1       0.275800
@<TRIPOS>BOND
     1     1     2 2   
     2     1     6 1   
     3     1    17 1   
     4     2     3 1   
     5     2    29 1   
     6     3     4 1   
     7     3     7 1   
     8     4     5 1   
     9     4     9 2   
    10     5     6 2   
    11     5    30 1   
    12     6    31 1   
    13     7     8 2   
    14     7    10 1   
    15     8     9 1   
    16     8    26 1   
    17    10    11 1   
    18    10    25 2   
    19    11    12 ar  
    20    11    16 ar  
    21    12    13 ar  
    22    12    32 1   
    23    13    14 ar  
    24    13    33 1   
    25    14    15 ar  
    26    14    34 1   
    27    15    16 ar  
    28    15    35 1   
    29    16    36 1   
    30    17    18 1   
    31    17    24 2   
    32    18    19 ar  
    33    18    23 ar  
    34    19    20 ar  
    35    19    27 1   
    36    20    21 ar  
    37    20    37 1   
    38    21    22 ar  
    39    21    38 1   
    40    22    23 ar  
    41    22    39 1   
    42    23    28 1   
    43    26    40 1   
    44    26    41 1   
@<TRIPOS>SUBSTRUCTURE
     1 PM1         1 TEMP              0 ****  ****    0 ROOT
