@<TRIPOS>MOLECULE
molecule
   60    63     1     0     0
SMALL
bcc


@<TRIPOS>ATOM
      1 C1           0.0000     0.0000     0.0000 ca         1 PM2      -0.058300
      2 C2           1.3820     0.0000     0.0000 ca         1 PM2      -0.103000
      3 C3          -0.6900     0.0090     1.1970 ca         1 PM2      -0.072000
      4 C4           2.0730     0.0000     1.1960 ca         1 PM2      -0.196300
      5 C5           0.0020     0.0130     2.3930 ca         1 PM2      -0.108000
      6 C6           1.3830     0.0100     2.3940 ca         1 PM2      -0.106000
      7 C7           3.5810    -0.0040     1.1960 c3         1 PM2       0.160100
      8 N8           4.0670    -1.3900     1.2040 nz         1 PM2      -0.810600
      9 C9          -1.6360    -1.2540    -1.3790 c3         1 PM2      -0.093400
     10 C10         -2.3750    -1.2750    -2.7200 c3         1 PM2       0.104000
     11 C11         -4.4240    -0.0070    -3.1470 c          1 PM2       0.682700
     12 O12         -5.0410     1.0400    -3.1600 o          1 PM2      -0.586100
     13 C13         -0.7530    -0.0070    -1.3050 c3         1 PM2      -0.034400
     14 N14         -3.1040    -0.0090    -2.8780 n          1 PM2      -0.495800
     15 C15         -2.3680     1.2540    -2.7360 c3         1 PM2       0.104000
     16 C16         -1.6290     1.2450    -1.3930 c3         1 PM2      -0.093400
     17 C17         -5.1240    -1.2790    -3.4270 ca         1 PM2      -0.274900
     18 C18         -4.5180    -2.2650    -4.2130 ca         1 PM2      -0.084000
     19 C19         -6.4010    -1.5130    -2.9180 ca         1 PM2       0.470200
     20 C20         -5.2130    -3.4390    -4.4430 ca         1 PM2      -0.215600
     21 N21         -7.0230    -2.6450    -3.1670 nb         1 PM2      -0.682000
     22 C22         -4.6030    -4.5340    -5.2780 c3         1 PM2      -0.030100
     23 C23         -6.4750    -3.5960    -3.9010 ca         1 PM2       0.445200
     24 C24         -4.9770    -4.3250    -6.7470 c3         1 PM2      -0.031100
     25 C25         -4.3670    -5.4200    -7.5820 ca         1 PM2      -0.091300
     26 C26         -5.0700    -6.5880    -7.8120 ca         1 PM2      -0.125000
     27 C27         -3.1070    -5.2540    -8.1250 ca         1 PM2      -0.125000
     28 C28         -4.5100    -7.5920    -8.5780 ca         1 PM2      -0.123500
     29 C29         -2.5450    -6.2610    -8.8880 ca         1 PM2      -0.123500
     30 C30         -3.2480    -7.4290    -9.1160 ca         1 PM2      -0.125000
     31 H2           1.9230    -0.0070    -0.9380 ha         1 PM2       0.135000
     32 H3          -1.7740     0.0100     1.1980 ha         1 PM2       0.164000
     33 H5          -0.5390     0.0200     3.3320 ha         1 PM2       0.160000
     34 H6           1.9250     0.0110     3.3320 ha         1 PM2       0.136000
     35 H7C1         3.9430     0.5000     0.3090 hx         1 PM2       0.112200
     36 H7C2         3.9430     0.5100     2.0780 hx         1 PM2       0.112200
     37 H8N1         3.9000    -1.7980     2.1030 hn         1 PM2       0.454467
     38 H8N2         5.0480    -1.4010     1.0100 hn         1 PM2       0.454467
     39 H9C1        -2.3570    -1.2330    -0.5710 hc         1 PM2       0.055450
     40 H9C2        -1.0170    -2.1390    -1.2950 hc         1 PM2       0.055450
     41 H101        -1.6590    -1.3830    -3.5260 h1         1 PM2       0.066700
     42 H102        -3.0750    -2.1010    -2.7350 h1         1 PM2       0.066700
     43 H13         -0.0530    -0.0130    -2.1310 hc         1 PM2       0.059700
     44 H151        -3.0640     2.0840    -2.7610 h1         1 PM2       0.066700
     45 H152        -1.6520     1.3480    -3.5430 h1         1 PM2       0.066700
     46 H161        -2.3510     1.2380    -0.5850 hc         1 PM2       0.055450
     47 H162        -1.0050     2.1280    -1.3200 hc         1 PM2       0.055450
     48 H18         -3.6540    -2.0200    -4.8190 ha         1 PM2       0.144000
     49 H19         -6.8840    -0.7570    -2.3110 h4         1 PM2       0.045100
     50 H221        -4.9770    -5.4940    -4.9440 hc         1 PM2       0.054200
     51 H222        -3.5250    -4.5100    -5.1740 hc         1 PM2       0.054200
     52 H23         -7.0230    -4.5140    -4.0800 h4         1 PM2       0.033100
     53 H241        -6.0550    -4.3490    -6.8510 hc         1 PM2       0.055200
     54 H242        -4.6040    -3.3650    -7.0810 hc         1 PM2       0.055200
     55 H26         -6.0590    -6.7160    -7.3900 ha         1 PM2       0.128000
     56 H27         -2.5560    -4.3390    -7.9460 ha         1 PM2       0.128000
     57 H28         -5.0600    -8.5080    -8.7570 ha         1 PM2       0.132500
     58 H29         -1.5570    -6.1320    -9.3120 ha         1 PM2       0.132500
     59 H30         -2.8080    -8.2170    -9.7160 ha         1 PM2       0.133000
     60 H83          3.5860    -1.9160     0.5010 hn         1 PM2       0.454467
@<TRIPOS>BOND
     1     1     2 ar
     2     1     3 ar
     3     1    13 1
     4     2     4 ar
     5     2    31 1
     6     3     5 ar
     7     3    32 1
     8     4     6 ar
     9     4     7 1
    10     5     6 ar
    11     5    33 1
    12     6    34 1
    13     7     8 1
    14     7    35 1
    15     7    36 1
    16     8    37 1
    17     8    38 1
    18     9    10 1
    19     9    13 1
    20     9    39 1
    21     9    40 1
    22    10    14 1
    23    10    41 1
    24    10    42 1
    25    11    12 2
    26    11    14 1
    27    11    17 1
    28    13    16 1
    29    13    43 1
    30    14    15 1
    31    15    16 1
    32    15    44 1
    33    15    45 1
    34    16    46 1
    35    16    47 1
    36    17    18 ar
    37    17    19 ar
    38    18    20 ar
    39    18    48 1
    40    19    21 ar
    41    19    49 1
    42    20    22 1
    43    20    23 ar
    44    21    23 ar
    45    22    24 1
    46    22    50 1
    47    22    51 1
    48    23    52 1
    49    24    25 1
    50    24    53 1
    51    24    54 1
    52    25    26 ar
    53    25    27 ar
    54    26    28 ar
    55    26    55 1
    56    27    29 ar
    57    27    56 1
    58    28    30 ar
    59    28    57 1
    60    29    30 ar
    61    29    58 1
    62    30    59 1
    63    60     8 1
@<TRIPOS>SUBSTRUCTURE
     1 PM2         1 TEMP              0 ****  ****    0 ROOT
