@<TRIPOS>MOLECULE
PM4
   60    59     1     0     0
SMALL
bcc


@<TRIPOS>ATOM
      1 O23          0.0000     0.0000     0.0000 o          1 PM4      -0.676000
      2 P24          1.6090     0.0000     0.0000 p5         1 PM4       0.709800
      3 O26          2.1030     0.0000     1.3960 o          1 PM4      -0.676000
      4 O27          2.1470    -1.3150    -0.7580 os         1 PM4      -0.485200
      5 C28          3.4970    -1.4610    -1.2010 c3         1 PM4       0.284400
      6 C29          3.6670    -2.8220    -1.8790 c3         1 PM4      -0.090000
      7 C30          3.3340    -3.9350    -0.8820 c3         1 PM4       0.013400
      8 C31          2.7240    -2.9140    -3.0800 c3         1 PM4       0.013400
      9 C32          5.1140    -2.9800    -2.3520 c3         1 PM4       0.131100
     10 O33          5.3840    -2.0250    -3.3810 oh         1 PM4      -0.546800
     11 C34          6.0490    -2.7480    -1.1940 c          1 PM4       0.556100
     12 O35          6.7640    -1.7700    -1.1770 o          1 PM4      -0.627100
     13 N36          6.0910    -3.6300    -0.1760 ns         1 PM4      -0.228900
     14 C37          6.9290    -3.3580     0.9950 c3         1 PM4       0.065000
     15 C38          6.7960    -4.5080     1.9960 c3         1 PM4      -0.109400
     16 C39          7.6570    -4.2280     3.2010 c          1 PM4       0.581100
     17 O40          8.3120    -3.2090     3.2530 o          1 PM4      -0.629100
     18 N41          7.6990    -5.1100     4.2190 ns         1 PM4      -0.214900
     19 C42          8.5360    -4.8370     5.3900 c3         1 PM4       0.071000
     20 C43          8.4030    -5.9880     6.3910 c3         1 PM4       0.065700
     21 S1           9.4380    -5.6510     7.8370 ss         1 PM4      -0.310700
     22 C1           9.1120    -7.0500     8.7670 c          1 PM4       0.628700
     23 O1           8.3520    -7.8960     8.3450 o          1 PM4      -0.563100
     24 C2           9.7700    -7.2320    10.1110 c3         1 PM4      -0.099400
     25 C3           9.3130    -8.5550    10.7290 c3         1 PM4      -0.022400
     26 C4           9.9800    -8.7390    12.0930 c3         1 PM4      -0.030400
     27 C5           9.5230   -10.0620    12.7100 c3         1 PM4      -0.027400
     28 C6          10.1910   -10.2460    14.0740 c3         1 PM4       0.005900
     29 H24          2.0770     1.1470    -0.6630 hp         1 PM4      -0.028400
     30 H281         3.7330    -0.6740    -1.9070 h1         1 PM4      -0.013300
     31 H282         4.1650    -1.3950    -0.3500 h1         1 PM4      -0.013300
     32 H301         3.8660    -4.8370    -1.1570 hc         1 PM4       0.004533
     33 H302         2.2670    -4.1250    -0.8970 hc         1 PM4       0.004533
     34 H303         3.6320    -3.6290     0.1140 hc         1 PM4       0.004533
     35 H311         2.8060    -2.0110    -3.6730 hc         1 PM4       0.004533
     36 H312         2.9950    -3.7700    -3.6860 hc         1 PM4       0.004533
     37 H313         1.7050    -3.0270    -2.7310 hc         1 PM4       0.004533
     38 H32          5.2600    -3.9800    -2.7410 h1         1 PM4      -0.008300
     39 H33          5.9890    -2.3940    -4.0020 ho         1 PM4       0.373000
     40 H36          5.5980    -4.4980    -0.2460 hn         1 PM4       0.181500
     41 H371         6.6080    -2.4340     1.4620 h1         1 PM4       0.042700
     42 H372         7.9630    -3.2660     0.6860 h1         1 PM4       0.042700
     43 H381         5.7610    -4.6010     2.3050 hc         1 PM4       0.029200
     44 H382         7.1170    -5.4320     1.5300 hc         1 PM4       0.029200
     45 H41          7.1700    -5.9580     4.1680 hn         1 PM4       0.174500
     46 H421         8.2150    -3.9140     5.8560 h1         1 PM4       0.038200
     47 H422         9.5700    -4.7450     5.0810 h1         1 PM4       0.038200
     48 H431         7.3690    -6.0800     6.7000 h1         1 PM4       0.051700
     49 H432         8.7250    -6.9110     5.9240 h1         1 PM4       0.051700
     50 H21          9.4910    -6.4130    10.7630 hc         1 PM4       0.043200
     51 H22         10.8460    -7.2440     9.9870 hc         1 PM4       0.043200
     52 H31          8.2370    -8.5430    10.8520 hc         1 PM4       0.027700
     53 H32A         9.5930    -9.3730    10.0770 hc         1 PM4       0.027700
     54 H41A        11.0560    -8.7510    11.9700 hc         1 PM4       0.013700
     55 H42          9.7000    -7.9210    12.7450 hc         1 PM4       0.013700
     56 H51          9.8020   -10.8810    12.0580 hc         1 PM4       0.014200
     57 H52          8.4460   -10.0500    12.8340 hc         1 PM4       0.014200
     58 H61          9.8620   -11.1800    14.5140 hc         1 PM4      -0.000300
     59 H62         11.2670   -10.2650    13.9490 hc         1 PM4      -0.000300
     60 H63          9.9170    -9.4240    14.7240 hc         1 PM4      -0.000300
@<TRIPOS>BOND
     1     1     2 1   
     2     2     3 1   
     3     2     4 1   
     4     2    29 1   
     5     4     5 1   
     6     5     6 1   
     7     5    30 1   
     8     5    31 1   
     9     6     7 1   
    10     6     8 1   
    11     6     9 1   
    12     7    32 1   
    13     7    33 1   
    14     7    34 1   
    15     8    35 1   
    16     8    36 1   
    17     8    37 1   
    18     9    10 1   
    19     9    11 1   
    20     9    38 1   
    21    10    39 1   
    22    11    12 2   
    23    11    13 1   
    24    13    14 1   
    25    13    40 1   
    26    14    15 1   
    27    14    41 1   
    28    14    42 1   
    29    15    16 1   
    30    15    43 1   
    31    15    44 1   
    32    16    17 2   
    33    16    18 1   
    34    18    19 1   
    35    18    45 1   
    36    19    20 1   
    37    19    46 1   
    38    19    47 1   
    39    20    21 1   
    40    20    48 1   
    41    20    49 1   
    42    21    22 1   
    43    22    23 2   
    44    22    24 1   
    45    24    25 1   
    46    24    50 1   
    47    24    51 1   
    48    25    26 1   
    49    25    52 1   
    50    25    53 1   
    51    26    27 1   
    52    26    54 1   
    53    26    55 1   
    54    27    28 1   
    55    27    56 1   
    56    27    57 1   
    57    28    58 1   
    58    28    59 1   
    59    28    60 1   
@<TRIPOS>SUBSTRUCTURE
     1 PM4         1 TEMP              0 ****  ****    0 ROOT
