@<TRIPOS>MOLECULE
molecule
   63    62     1     0     0
SMALL
bcc


@<TRIPOS>ATOM
      1 O23          0.0000     0.0000     0.0000 o          1 PM5      -0.799500
      2 P24          1.6100     0.0000     0.0000 p5         1 PM5       1.160800
      3 O26          2.1020     0.0000     1.3960 o          1 PM5      -0.799500
      4 O27          2.1470    -1.3140    -0.7580 os         1 PM5      -0.575200
      5 C28          3.4980    -1.4600    -1.2000 c3         1 PM5       0.211400
      6 C29          3.6690    -2.8210    -1.8780 c3         1 PM5      -0.059000
      7 C30          3.3360    -3.9330    -0.8820 c3         1 PM5      -0.073600
      8 C31          2.7260    -2.9130    -3.0810 c3         1 PM5      -0.073600
      9 C32          5.1150    -2.9770    -2.3520 c3         1 PM5       0.084100
     10 O33          5.3860    -2.0220    -3.3800 oh         1 PM5      -0.567800
     11 C34          6.0510    -2.7460    -1.1930 c          1 PM5       0.633100
     12 O35          6.7660    -1.7660    -1.1760 o          1 PM5      -0.589100
     13 N36          6.0930    -3.6280    -0.1750 ns         1 PM5      -0.596900
     14 C37          6.9300    -3.3550     0.9960 c3         1 PM5       0.126000
     15 C38          6.7970    -4.5060     1.9970 c3         1 PM5      -0.176400
     16 C39          7.6590    -4.2250     3.2010 c          1 PM5       0.665100
     17 O40          8.3130    -3.2060     3.2550 o          1 PM5      -0.593100
     18 N41          7.7010    -5.1080     4.2190 ns         1 PM5      -0.593900
     19 C42          8.5370    -4.8350     5.3900 c3         1 PM5       0.126000
     20 C43          8.4050    -5.9850     6.3900 c3         1 PM5      -0.012300
     21 S1           9.4390    -5.6480     7.8370 ss         1 PM5      -0.251700
     22 C1           9.1140    -7.0490     8.7670 c          1 PM5       0.566700
     23 O1           8.3540    -7.8950     8.3440 o          1 PM5      -0.537100
     24 C2           9.7710    -7.2310    10.1110 c3         1 PM5      -0.163400
     25 C3           9.3140    -8.5530    10.7280 c3         1 PM5      -0.071400
     26 C4           9.9810    -8.7380    12.0920 c3         1 PM5      -0.083400
     27 C5           9.5240   -10.0610    12.7090 c3         1 PM5      -0.080400
     28 C6          10.1910   -10.2460    14.0740 c3         1 PM5      -0.084400
     29 C7           9.7340   -11.5690    14.6900 c3         1 PM5      -0.092100
     30 H24          2.0780     1.1480    -0.6620 hp         1 PM5      -0.197400
     31 H281         3.7340    -0.6720    -1.9060 h1         1 PM5       0.032700
     32 H282         4.1660    -1.3930    -0.3500 h1         1 PM5       0.032700
     33 H301         3.8510    -4.8420    -1.1700 hc         1 PM5       0.037533
     34 H302         3.6540    -3.6370     0.1100 hc         1 PM5       0.037533
     35 H303         2.2670    -4.1090    -0.8810 hc         1 PM5       0.037533
     36 H311         2.9910    -3.7750    -3.6820 hc         1 PM5       0.037533
     37 H312         1.7060    -3.0150    -2.7330 hc         1 PM5       0.037533
     38 H313         2.8150    -2.0150    -3.6800 hc         1 PM5       0.037533
     39 H32          5.2620    -3.9770    -2.7410 h1         1 PM5       0.029700
     40 H33          6.0700    -2.3480    -3.9410 ho         1 PM5       0.394000
     41 H36          5.6000    -4.4960    -0.2460 hn         1 PM5       0.311500
     42 H371         7.9650    -3.2630     0.6880 h1         1 PM5       0.072200
     43 H372         6.6090    -2.4320     1.4630 h1         1 PM5       0.072200
     44 H381         5.7630    -4.5980     2.3060 hc         1 PM5       0.063700
     45 H382         7.1190    -5.4290     1.5300 hc         1 PM5       0.063700
     46 H41          7.1850    -5.9640     4.1610 hn         1 PM5       0.313500
     47 H421         8.2140    -3.9120     5.8570 h1         1 PM5       0.065200
     48 H422         9.5710    -4.7410     5.0820 h1         1 PM5       0.065200
     49 H431         8.7260    -6.9080     5.9230 h1         1 PM5       0.078700
     50 H432         7.3700    -6.0790     6.6990 h1         1 PM5       0.078700
     51 H21          9.4920    -6.4120    10.7630 hc         1 PM5       0.072200
     52 H22         10.8480    -7.2430     9.9870 hc         1 PM5       0.072200
     53 H31          8.2380    -8.5410    10.8510 hc         1 PM5       0.056200
     54 H32A         9.5930    -9.3720    10.0760 hc         1 PM5       0.056200
     55 H41A        11.0570    -8.7490    11.9690 hc         1 PM5       0.040200
     56 H42          9.7010    -7.9200    12.7450 hc         1 PM5       0.040200
     57 H51          8.4480   -10.0500    12.8320 hc         1 PM5       0.043700
     58 H52          9.8040   -10.8790    12.0570 hc         1 PM5       0.043700
     59 H61         11.2680   -10.2570    13.9510 hc         1 PM5       0.039200
     60 H62          9.9110    -9.4280    14.7260 hc         1 PM5       0.039200
     61 H71         10.2400   -11.7200    15.6360 hc         1 PM5       0.032367
     62 H72          8.6640   -11.5410    14.8530 hc         1 PM5       0.032367
     63 H73          9.9760   -12.3830    14.0180 hc         1 PM5       0.032367
@<TRIPOS>BOND
     1     1     2 1
     2     2     3 1
     3     2     4 1
     4     2    30 1
     5     4     5 1
     6     5     6 1
     7     5    31 1
     8     5    32 1
     9     6     7 1
    10     6     8 1
    11     6     9 1
    12     7    33 1
    13     7    34 1
    14     7    35 1
    15     8    36 1
    16     8    37 1
    17     8    38 1
    18     9    10 1
    19     9    11 1
    20     9    39 1
    21    10    40 1
    22    11    12 2
    23    11    13 1
    24    13    14 1
    25    13    41 1
    26    14    15 1
    27    14    42 1
    28    14    43 1
    29    15    16 1
    30    15    44 1
    31    15    45 1
    32    16    17 2
    33    16    18 1
    34    18    19 1
    35    18    46 1
    36    19    20 1
    37    19    47 1
    38    19    48 1
    39    20    21 1
    40    20    49 1
    41    20    50 1
    42    21    22 1
    43    22    23 2
    44    22    24 1
    45    24    25 1
    46    24    51 1
    47    24    52 1
    48    25    26 1
    49    25    53 1
    50    25    54 1
    51    26    27 1
    52    26    55 1
    53    26    56 1
    54    27    28 1
    55    27    57 1
    56    27    58 1
    57    28    29 1
    58    28    59 1
    59    28    60 1
    60    29    61 1
    61    29    62 1
    62    29    63 1
@<TRIPOS>SUBSTRUCTURE
     1 PM5         1 TEMP              0 ****  ****    0 ROOT
