@<TRIPOS>MOLECULE
molecule
   14    15     1     0     0
SMALL
bcc


@<TRIPOS>ATOM
      1 N9           0.0000     0.0000     0.0000 na         1 PM6      -0.363000
      2 C4           1.3730     0.0000     0.0000 ca         1 PM6       0.438800
      3 N3           2.3110     0.0000     0.9410 nb         1 PM6      -0.738000
      4 C2           3.5870    -0.0010     0.6160 ca         1 PM6       0.693900
      5 N1           3.9990     0.0010    -0.6380 nb         1 PM6      -0.735000
      6 C6           3.1330     0.0010    -1.6470 ca         1 PM6       0.636600
      7 C5           1.7600     0.0010    -1.3510 ca         1 PM6      -0.118200
      8 N7           0.6250     0.0010    -2.0910 nc         1 PM6      -0.568100
      9 C8          -0.4080     0.0010    -1.3000 cd         1 PM6       0.437700
     10 S6           3.6950     0.0020    -3.3170 sh         1 PM6      -0.367100
     11 HN9         -0.5920    -0.0000     0.8070 hn         1 PM6       0.316700
     12 H2           4.3260    -0.0010     1.4080 h5         1 PM6       0.067100
     13 H8          -1.4410     0.0010    -1.6270 h5         1 PM6       0.084800
     14 HS6          4.4530    -1.0670    -3.5300 hs         1 PM6       0.211800
@<TRIPOS>BOND
     1     1     2 1
     2     1     9 1
     3     2     3 ar
     4     2     7 ar
     5     3     4 ar
     6     4     5 ar
     7     5     6 ar
     8     6     7 ar
     9     6    10 1
    10     7     8 1
    11     8     9 2
    12     1    11 1
    13     4    12 1
    14     9    13 1
    15    10    14 1
@<TRIPOS>SUBSTRUCTURE
     1 PM6         1 TEMP              0 ****  ****    0 ROOT
