@<TRIPOS>MOLECULE
PM6
   14    15     1     0     0
SMALL
bcc


@<TRIPOS>ATOM
      1 N9         -0.0180    0.0700    0.0400 na        1 PM6     -0.378000
      2 C4          1.3790   -0.0020    0.0090 ca        1 PM6      0.432800
      3 N3          2.2990   -0.0020    1.0180 nb        1 PM6     -0.697000
      4 C2          3.5710   -0.0880    0.5650 ca        1 PM6      0.662900
      5 N1          4.0230   -0.1710   -0.7210 nb        1 PM6     -0.745000
      6 C6          3.1140   -0.1720   -1.7230 ca        1 PM6      0.589600
      7 C5          1.7320   -0.0870   -1.4150 ca        1 PM6     -0.159200
      8 N7          0.5640   -0.0640   -2.1900 nc        1 PM6     -0.525100
      9 C8         -0.4420    0.0290   -1.3060 cd        1 PM6      0.415700
     10 S6          3.5640   -0.2700   -3.3500 sh        1 PM6     -0.251100
     11 HN9        -0.5810    0.1360    0.8460 hn        1 PM6      0.321700
     12 H2          4.3600   -0.0920    1.3470 h5        1 PM6      0.057100
     13 H8         -1.5080    0.0710   -1.5660 h5        1 PM6      0.076800
     14 HS6         4.8840   -0.3330   -3.2410 hs        1 PM6      0.198800
@<TRIPOS>BOND
     1    1    2 1   
     2    1    9 1   
     3    1   11 1   
     4    2    3 ar  
     5    2    7 ar  
     6    3    4 ar  
     7    4    5 ar  
     8    4   12 1   
     9    5    6 ar  
    10    6    7 ar  
    11    6   10 1   
    12    7    8 1   
    13    8    9 2   
    14    9   13 1   
    15   10   14 1   
@<TRIPOS>SUBSTRUCTURE
     1 PM6         1 TEMP              0 ****  ****    0 ROOT
