@<TRIPOS>MOLECULE
PM8
   72    71     1     0     0
SMALL
bcc


@<TRIPOS>ATOM
      1 O23          0.0000     0.0000     0.0000 o          1 PM8      -0.676000
      2 P24          1.6110     0.0000     0.0000 p5         1 PM8       0.709800
      3 O26          2.1040     0.0000     1.3940 o          1 PM8      -0.676000
      4 O27          2.1470    -1.3150    -0.7590 os         1 PM8      -0.485200
      5 C28          3.4970    -1.4620    -1.2030 c3         1 PM8       0.283400
      6 C29          3.6660    -2.8240    -1.8800 c3         1 PM8      -0.088000
      7 C30          3.3330    -3.9350    -0.8830 c3         1 PM8       0.013400
      8 C31          2.7230    -2.9150    -3.0810 c3         1 PM8       0.013400
      9 C32          5.1130    -2.9800    -2.3540 c3         1 PM8       0.132100
     10 O33          5.3830    -2.0260    -3.3830 oh         1 PM8      -0.546800
     11 C34          6.0480    -2.7500    -1.1970 c          1 PM8       0.553100
     12 O35          6.7650    -1.7700    -1.1810 o          1 PM8      -0.630100
     13 N36          6.0910    -3.6320    -0.1780 ns         1 PM8      -0.227900
     14 C37          6.9300    -3.3590     0.9930 c3         1 PM8       0.065000
     15 C38          6.7970    -4.5080     1.9930 c3         1 PM8      -0.109400
     16 C39          7.6590    -4.2280     3.1970 c          1 PM8       0.581100
     17 O40          8.3140    -3.2090     3.2490 o          1 PM8      -0.628100
     18 N41          7.7020    -5.1100     4.2160 ns         1 PM8      -0.214900
     19 C42          8.5390    -4.8380     5.3860 c3         1 PM8       0.071000
     20 C43          8.4070    -5.9880     6.3870 c3         1 PM8       0.065700
     21 S1           9.4420    -5.6520     7.8330 ss         1 PM8      -0.309700
     22 C1           9.1170    -7.0510     8.7630 c          1 PM8       0.627700
     23 O1           8.3560    -7.8970     8.3410 o          1 PM8      -0.563100
     24 C2           9.7760    -7.2330    10.1070 c3         1 PM8      -0.099400
     25 C3           9.3180    -8.5550    10.7240 c3         1 PM8      -0.022400
     26 C4           9.9860    -8.7390    12.0890 c3         1 PM8      -0.029400
     27 C5           9.5290   -10.0620    12.7060 c3         1 PM8      -0.028400
     28 C6          10.1970   -10.2460    14.0700 c3         1 PM8      -0.029400
     29 C7           9.7390   -11.5690    14.6880 c3         1 PM8      -0.029400
     30 C8          10.4080   -11.7540    16.0510 c3         1 PM8      -0.030400
     31 C9           9.9500   -13.0760    16.6700 c3         1 PM8      -0.028400
     32 C10         10.6190   -13.2600    18.0330 c3         1 PM8       0.006900
     33 H24          2.0790     1.1470    -0.6630 hp         1 PM8      -0.028400
     34 H281         3.7330    -0.6750    -1.9090 h1         1 PM8      -0.013300
     35 H282         4.1660    -1.3960    -0.3530 h1         1 PM8      -0.013300
     36 H301         3.6460    -3.6350     0.1100 hc         1 PM8       0.004533
     37 H302         3.8520    -4.8420    -1.1660 hc         1 PM8       0.004533
     38 H303         2.2650    -4.1140    -0.8860 hc         1 PM8       0.004533
     39 H311         2.8110    -2.0150    -3.6780 hc         1 PM8       0.004533
     40 H312         2.9880    -3.7760    -3.6840 hc         1 PM8       0.004533
     41 H313         1.7030    -3.0190    -2.7320 hc         1 PM8       0.004533
     42 H32          5.2590    -3.9810    -2.7430 h1         1 PM8      -0.008300
     43 H33          6.0540    -2.3600    -3.9530 ho         1 PM8       0.374000
     44 H36          5.6000    -4.5010    -0.2490 hn         1 PM8       0.181500
     45 H371         7.9640    -3.2670     0.6830 h1         1 PM8       0.042700
     46 H372         6.6090    -2.4350     1.4590 h1         1 PM8       0.042700
     47 H381         7.1180    -5.4320     1.5260 hc         1 PM8       0.029200
     48 H382         5.7630    -4.6000     2.3020 hc         1 PM8       0.029200
     49 H41          7.1610    -5.9510     4.1720 hn         1 PM8       0.174500
     50 H421         9.5730    -4.7460     5.0760 h1         1 PM8       0.037700
     51 H422         8.2180    -3.9150     5.8530 h1         1 PM8       0.037700
     52 H431         7.3730    -6.0800     6.6960 h1         1 PM8       0.051700
     53 H432         8.7280    -6.9110     5.9200 h1         1 PM8       0.051700
     54 H21         10.8520    -7.2450     9.9820 hc         1 PM8       0.043700
     55 H22          9.4970    -6.4140    10.7590 hc         1 PM8       0.043700
     56 H31          8.2420    -8.5430    10.8480 hc         1 PM8       0.028200
     57 H32A         9.5970    -9.3740    10.0720 hc         1 PM8       0.028200
     58 H41A         9.7070    -7.9210    12.7410 hc         1 PM8       0.013700
     59 H42         11.0630    -8.7520    11.9650 hc         1 PM8       0.013700
     60 H51          9.8080   -10.8810    12.0530 hc         1 PM8       0.016700
     61 H52          8.4520   -10.0500    12.8290 hc         1 PM8       0.016700
     62 H61          9.9180    -9.4280    14.7220 hc         1 PM8       0.014200
     63 H62         11.2730   -10.2590    13.9460 hc         1 PM8       0.014200
     64 H71          8.6630   -11.5560    14.8120 hc         1 PM8       0.015200
     65 H72         10.0180   -12.3870    14.0350 hc         1 PM8       0.015200
     66 H81         10.1310   -10.9350    16.7040 hc         1 PM8       0.014200
     67 H82         11.4840   -11.7670    15.9270 hc         1 PM8       0.014200
     68 H91         10.2280   -13.8950    16.0180 hc         1 PM8       0.012200
     69 H92          8.8740   -13.0630    16.7940 hc         1 PM8       0.012200
     70 H101        10.3510   -12.4350    18.6810 hc         1 PM8      -0.000633
     71 H102        11.6950   -13.2850    17.9070 hc         1 PM8      -0.000633
     72 H103        10.2860   -14.1910    18.4760 hc         1 PM8      -0.000633
@<TRIPOS>BOND
     1     1     2 1   
     2     2     3 1   
     3     2     4 1   
     4     2    33 1   
     5     4     5 1   
     6     5     6 1   
     7     5    34 1   
     8     5    35 1   
     9     6     7 1   
    10     6     8 1   
    11     6     9 1   
    12     7    36 1   
    13     7    37 1   
    14     7    38 1   
    15     8    39 1   
    16     8    40 1   
    17     8    41 1   
    18     9    10 1   
    19     9    11 1   
    20     9    42 1   
    21    10    43 1   
    22    11    12 2   
    23    11    13 1   
    24    13    14 1   
    25    13    44 1   
    26    14    15 1   
    27    14    45 1   
    28    14    46 1   
    29    15    16 1   
    30    15    47 1   
    31    15    48 1   
    32    16    17 2   
    33    16    18 1   
    34    18    19 1   
    35    18    49 1   
    36    19    20 1   
    37    19    50 1   
    38    19    51 1   
    39    20    21 1   
    40    20    52 1   
    41    20    53 1   
    42    21    22 1   
    43    22    23 2   
    44    22    24 1   
    45    24    25 1   
    46    24    54 1   
    47    24    55 1   
    48    25    26 1   
    49    25    56 1   
    50    25    57 1   
    51    26    27 1   
    52    26    58 1   
    53    26    59 1   
    54    27    28 1   
    55    27    60 1   
    56    27    61 1   
    57    28    29 1   
    58    28    62 1   
    59    28    63 1   
    60    29    30 1   
    61    29    64 1   
    62    29    65 1   
    63    30    31 1   
    64    30    66 1   
    65    30    67 1   
    66    31    32 1   
    67    31    68 1   
    68    31    69 1   
    69    32    70 1   
    70    32    71 1   
    71    32    72 1   
@<TRIPOS>SUBSTRUCTURE
     1 PM8         1 TEMP              0 ****  ****    0 ROOT
