@<TRIPOS>MOLECULE
PM9
   40    40     1     0     0
SMALL
bcc


@<TRIPOS>ATOM
      1 N            0.0000     0.0000     0.0000 ne         1 PM9      -0.380300
      2 C           -2.0540     0.1180     1.1540 c          1 PM9       0.895300
      3 O2          -2.6640     0.1190     2.2100 o          1 PM9      -0.919300
      4 CB           0.0850    -0.1280     2.4520 c3         1 PM9      -0.070700
      5 CG           0.5750     1.2510     2.8950 c3         1 PM9       0.105700
      6 SD           1.4760     1.0980     4.4630 ss         1 PM9      -0.438200
      7 CE           1.9690     2.8070     4.8200 c3         1 PM9       0.105000
      8 O1          -2.7260     0.2330    -0.0150 o          1 PM9      -0.919300
      9 C2           2.0370    -0.3580    -3.5980 cc         1 PM9      -0.228200
     10 C2A          1.3110    -0.4890    -4.9120 c3         1 PM9       0.090100
     11 C3           1.3270    -0.2430    -2.4460 cd         1 PM9       0.096100
     12 C4           2.0230    -0.1220    -1.2160 cd         1 PM9      -0.009000
     13 C4A          1.3170     0.0000     0.0000 ce         1 PM9      -0.135400
     14 C5           3.4360    -0.1230    -1.2340 cd         1 PM9      -0.099200
     15 C5A          4.2130     0.0040     0.0510 c3         1 PM9       0.329600
     16 C6           4.0840    -0.2420    -2.4160 cc         1 PM9      -0.164000
     17 N1           3.3950    -0.3620    -3.5760 na         1 PM9      -0.062800
     18 O4P          5.6130    -0.0250    -0.2340 os         1 PM9      -0.488200
     19 CA          -0.6630     0.0000     1.1500 cf         1 PM9       0.228300
     20 P            6.7420     0.0870     0.9080 p5         1 PM9       0.670900
     21 H4           1.8590     0.0920     0.9330 h4         1 PM9       0.132000
     22 HBC1         0.9340    -0.7870     2.3170 hc         1 PM9       0.035700
     23 HBC2        -0.5730    -0.5380     3.2080 hc         1 PM9       0.035700
     24 HGC1         1.2340     1.6610     2.1390 h1         1 PM9       0.040700
     25 HGC2        -0.2740     1.9100     3.0300 h1         1 PM9       0.040700
     26 HEC1         1.0950     3.4470     4.7990 h1         1 PM9       0.021367
     27 HEC2         2.6790     3.1420     4.0730 h1         1 PM9       0.021367
     28 HEC3         2.4280     2.8540     5.8000 h1         1 PM9       0.021367
     29 H2A1         2.0210    -0.7330    -5.6940 hc         1 PM9      -0.008300
     30 H2A2         0.5700    -1.2750    -4.8390 hc         1 PM9      -0.008300
     31 H2A3         0.8220     0.4480    -5.1490 hc         1 PM9      -0.008300
     32 H3          -0.3410     0.5970    -2.7630 ho         1 PM9       0.384000
     33 H5A1         3.9620     0.9410     0.5340 h1         1 PM9      -0.004300
     34 H5A2         3.9610    -0.8200     0.7080 h1         1 PM9      -0.004300
     35 H6           5.1670    -0.2460    -2.4340 h4         1 PM9       0.179000
     36 HN           3.8980    -0.4490    -4.4370 hn         1 PM9       0.235800
     37 O3          -0.0320    -0.2440    -2.4720 oh         1 PM9      -0.444100
     38 O1P          6.5180    -0.9600     1.9300 o          1 PM9      -0.758167
     39 O3P          6.6630     1.5390     1.6010 o          1 PM9      -0.758167
     40 O2P          8.1960    -0.1120     0.2450 o          1 PM9      -0.758167
@<TRIPOS>BOND
     1     1    13 1   
     2     1    19 2   
     3     2     3 1   
     4     2     8 1   
     5     2    19 1   
     6     4     5 1   
     7     4    19 1   
     8     4    22 1   
     9     4    23 1   
    10     5     6 1   
    11     5    24 1   
    12     5    25 1   
    13     6     7 1   
    14     7    26 1   
    15     7    27 1   
    16     7    28 1   
    17     9    10 1   
    18     9    11 2   
    19     9    17 1   
    20    10    29 1   
    21    10    30 1   
    22    10    31 1   
    23    11    12 1   
    24    11    37 1   
    25    12    13 2   
    26    12    14 1   
    27    13    21 1   
    28    14    15 1   
    29    14    16 2   
    30    15    18 1   
    31    15    33 1   
    32    15    34 1   
    33    16    17 1   
    34    16    35 1   
    35    17    36 1   
    36    18    20 1   
    37    20    38 1   
    38    20    39 1   
    39    20    40 1   
    40    32    37 1   
@<TRIPOS>SUBSTRUCTURE
     1 PM9         1 TEMP              0 ****  ****    0 ROOT
