@<TRIPOS>MOLECULE
molecule
   40    40     1     0     0
SMALL
bcc


@<TRIPOS>ATOM
      1 N            0.0000     0.0000     0.0000 ne         1 PM9      -0.520300
      2 C           -2.0540     0.1180     1.1540 c          1 PM9       0.800300
      3 O2          -2.6640     0.1190     2.2100 o          1 PM9      -0.860800
      4 CB           0.0850    -0.1280     2.4520 c3         1 PM9      -0.146700
      5 CG           0.5750     1.2510     2.8950 c3         1 PM9       0.044700
      6 SD           1.4760     1.0980     4.4630 ss         1 PM9      -0.388200
      7 CE           1.9690     2.8070     4.8200 c3         1 PM9       0.004000
      8 O1          -2.7260     0.2330    -0.0150 o          1 PM9      -0.860800
      9 C2           2.0370    -0.3580    -3.5980 cc         1 PM9      -0.010200
     10 C2A          1.3110    -0.4890    -4.9120 c3         1 PM9      -0.035900
     11 C3           1.3270    -0.2430    -2.4460 cd         1 PM9       0.075100
     12 C4           2.0230    -0.1220    -1.2160 cd         1 PM9      -0.014000
     13 C4A          1.3170     0.0000     0.0000 ce         1 PM9      -0.052400
     14 C5           3.4360    -0.1230    -1.2340 cd         1 PM9      -0.123200
     15 C5A          4.2130     0.0040     0.0510 c3         1 PM9       0.264600
     16 C6           4.0840    -0.2420    -2.4160 cc         1 PM9       0.027000
     17 N1           3.3950    -0.3620    -3.5760 na         1 PM9      -0.596800
     18 O4P          5.6130    -0.0250    -0.2340 os         1 PM9      -0.598200
     19 CA          -0.6630     0.0000     1.1500 cf         1 PM9       0.337300
     20 P            6.7420     0.0870     0.9080 p5         1 PM9       1.188900
     21 H4           1.8590     0.0920     0.9330 h4         1 PM9       0.120000
     22 HBC1        -0.5730    -0.5380     3.2080 hc         1 PM9       0.058700
     23 HBC2         0.9340    -0.7870     2.3170 hc         1 PM9       0.058700
     24 HGC1        -0.2740     1.9100     3.0300 h1         1 PM9       0.062700
     25 HGC2         1.2340     1.6610     2.1390 h1         1 PM9       0.062700
     26 HEC1         2.6260     3.1640     4.0360 h1         1 PM9       0.046700
     27 HEC2         2.4880     2.8430     5.7700 h1         1 PM9       0.046700
     28 HEC3         1.0870     3.4350     4.8660 h1         1 PM9       0.046700
     29 H2A1         0.7790    -1.4320    -4.9390 hc         1 PM9       0.029033
     30 H2A2         0.6060     0.3270    -5.0180 hc         1 PM9       0.029033
     31 H2A3         2.0270    -0.4550    -5.7250 hc         1 PM9       0.029033
     32 H3          -0.3430    -1.1270    -2.5830 ho         1 PM9       0.396000
     33 H5A1         3.9620     0.9410     0.5340 h1         1 PM9       0.036200
     34 H5A2         3.9610    -0.8200     0.7080 h1         1 PM9       0.036200
     35 H6           5.1670    -0.2460    -2.4340 h4         1 PM9       0.200000
     36 HN           3.8980    -0.4490    -4.4370 hn         1 PM9       0.412800
     37 O3          -0.0320    -0.2440    -2.4720 oh         1 PM9      -0.462100
     38 O1P          6.5180    -0.9600     1.9300 o          1 PM9      -0.915167
     39 O3P          6.6630     1.5390     1.6010 o          1 PM9      -0.915167
     40 O2P          8.1960    -0.1120     0.2450 o          1 PM9      -0.915167
@<TRIPOS>BOND
     1     1    13 1
     2     1    19 2
     3     2     8 1
     4     2     3 1
     5     2    19 1
     6     4     5 1
     7     4    19 1
     8     5     6 1
     9     6     7 1
    10     9    10 1
    11     9    11 2
    12     9    17 1
    13    11    12 1
    14    11    37 1
    15    12    13 2
    16    12    14 1
    17    14    15 1
    18    14    16 2
    19    15    18 1
    20    16    17 1
    21    38    20 1
    22    40    20 1
    23    39    20 1
    24    18    20 1
    25    13    21 1
    26     4    22 1
    27     4    23 1
    28     5    24 1
    29     5    25 1
    30     7    26 1
    31     7    27 1
    32     7    28 1
    33    10    29 1
    34    10    30 1
    35    10    31 1
    36    37    32 1
    37    15    33 1
    38    15    34 1
    39    16    35 1
    40    17    36 1
@<TRIPOS>SUBSTRUCTURE
     1 PM9         1 TEMP              0 ****  ****    0 ROOT
