@<TRIPOS>MOLECULE
PMA
   20    20     1     0     0
SMALL
bcc


@<TRIPOS>ATOM
      1 C1          0.0180   -0.1140   -0.0370 ca        1 PMA     -0.104600
      2 C2          1.3990    0.1340   -0.0340 ca        1 PMA     -0.104600
      3 C3         -0.6320   -0.2380    1.2020 ca        1 PMA     -0.139000
      4 C4          1.3970    0.1180    2.4480 ca        1 PMA     -0.104600
      5 C5          0.0150   -0.1300    2.4450 ca        1 PMA     -0.104600
      6 C6          2.0460    0.2420    1.2080 ca        1 PMA     -0.139000
      7 C7          2.2790    0.2690    3.6700 c         1 PMA      0.929200
      8 C8         -0.8700   -0.2970    3.6630 c         1 PMA      0.929200
      9 C9         -0.8640   -0.2650   -1.2600 c         1 PMA      0.929200
     10 C10         2.2840    0.3000   -1.2530 c         1 PMA      0.929200
     11 O1         -1.0840   -1.4180   -1.7570 o         1 PMA     -0.900300
     12 O2         -1.4720    0.7460   -1.7430 o         1 PMA     -0.900300
     13 O3          2.5050    1.4600   -1.7340 o         1 PMA     -0.900300
     14 O4          2.8940   -0.7040   -1.7470 o         1 PMA     -0.900300
     15 O5          2.4980    1.4220    4.1670 o         1 PMA     -0.900300
     16 O6          2.8870   -0.7420    4.1530 o         1 PMA     -0.900300
     17 O7         -1.0900   -1.4560    4.1440 o         1 PMA     -0.900300
     18 O8         -1.4800    0.7070    4.1570 o         1 PMA     -0.900300
     19 H3         -1.7150   -0.4330    1.2000 ha        1 PMA      0.093000
     20 H6          3.1300    0.4360    1.2110 ha        1 PMA      0.093000
@<TRIPOS>BOND
     1    1    2 ar  
     2    1    3 ar  
     3    1    9 1   
     4    2    6 ar  
     5    2   10 1   
     6    3    5 ar  
     7    3   19 1   
     8    4    5 ar  
     9    4    6 ar  
    10    4    7 1   
    11    5    8 1   
    12    6   20 1   
    13    7   15 1   
    14    7   16 1   
    15    8   17 1   
    16    8   18 1   
    17    9   11 1   
    18    9   12 1   
    19   10   13 1   
    20   10   14 1   
@<TRIPOS>SUBSTRUCTURE
     1 PMA         1 TEMP              0 ****  ****    0 ROOT
