@<TRIPOS>MOLECULE
molecule
   20    20     1     0     0
SMALL
bcc


@<TRIPOS>ATOM
      1 C1           0.0000     0.0000     0.0000 ca         1 PMA      -0.128600
      2 C2           1.4060     0.0000     0.0000 ca         1 PMA      -0.128600
      3 C3          -0.6960    -0.0120     1.2050 ca         1 PMA      -0.119000
      4 C4           1.4050    -0.0110     2.4100 ca         1 PMA      -0.128600
      5 C5          -0.0000    -0.0170     2.4100 ca         1 PMA      -0.128600
      6 C6           2.1010     0.0000     1.2050 ca         1 PMA      -0.119000
      7 C7           2.1450    -0.0160     3.6920 c          1 PMA       0.912200
      8 C8          -0.7400    -0.0280     3.6920 c          1 PMA       0.912200
      9 C9          -0.7400     0.0050    -1.2820 c          1 PMA       0.912200
     10 C10          2.1460     0.0120    -1.2820 c          1 PMA       0.912200
     11 O1          -0.5640    -0.8860    -2.0890 o          1 PMA      -0.892050
     12 O2          -1.6090     0.9970    -1.5540 o          1 PMA      -0.892050
     13 O3           1.5430     0.1250    -2.3300 o          1 PMA      -0.892050
     14 O4           3.4870    -0.1010    -1.2860 o          1 PMA      -0.892050
     15 O5           1.5430     0.0870     4.7420 o          1 PMA      -0.892050
     16 O6           3.4870    -0.1360     3.6950 o          1 PMA      -0.892050
     17 O7          -0.5610    -0.9270     4.4880 o          1 PMA      -0.892050
     18 O8          -1.6130     0.9560     3.9750 o          1 PMA      -0.892050
     19 H3          -1.7800    -0.0140     1.2050 ha         1 PMA       0.120500
     20 H6           3.1850     0.0020     1.2050 ha         1 PMA       0.120500
@<TRIPOS>BOND
     1     1     2 ar
     2     1     3 ar
     3     1     9 1
     4     2     6 ar
     5     2    10 1
     6     3     5 ar
     7     3    19 1
     8     4     5 ar
     9     4     6 ar
    10     4     7 1
    11     5     8 1
    12     6    20 1
    13     7    15 1
    14     7    16 1
    15     8    17 1
    16     8    18 1
    17     9    11 1
    18     9    12 1
    19    10    13 1
    20    10    14 1
@<TRIPOS>SUBSTRUCTURE
     1 PMA         1 TEMP              0 ****  ****    0 ROOT
