@<TRIPOS>MOLECULE
PMC
   19    18     1     0     0
SMALL
bcc


@<TRIPOS>ATOM
      1 C2         -0.2210    0.3610    0.0910 cc        1 PMC      0.015600
      2 C3          1.1780   -0.0750   -0.0100 cc        1 PMC      0.111000
      3 CA          1.8570   -0.3530   -1.1730 c2        1 PMC     -0.601000
      4 P1          3.0680   -2.3280   -2.2180 p4        1 PMC      1.573300
      5 O3          3.0460   -1.7330   -3.5750 o         1 PMC     -0.852500
      6 O2          4.3270   -2.1750   -1.4430 o         1 PMC     -0.852500
      7 O1          2.2610   -3.5430   -1.9630 o         1 PMC     -0.901300
      8 C4          1.8630   -0.1880    1.2500 cc        1 PMC     -0.313000
      9 C5          1.1990    0.0230    2.4430 cd        1 PMC     -0.216600
     10 C6         -0.1530    0.3820    2.4160 cd        1 PMC      0.167500
     11 N1         -0.8410    0.5600    1.2520 nc        1 PMC     -0.572300
     12 C          -1.0350    0.7150   -1.1580 c         1 PMC      0.927600
     13 OC1        -0.8950    1.8730   -1.6610 o         1 PMC     -0.881800
     14 OC2        -1.8820   -0.1080   -1.6160 o         1 PMC     -0.881800
     15 HCA1        2.9540   -0.3230   -1.1460 ha        1 PMC      0.104500
     16 HCA2        1.3760   -0.2850   -2.1510 ha        1 PMC      0.104500
     17 HC4         2.9210   -0.4750    1.2400 ha        1 PMC      0.093000
     18 HC5         1.7210   -0.0870    3.4040 ha        1 PMC      0.040000
     19 HC6        -0.7240    0.5500    3.3380 h4        1 PMC     -0.065200
@<TRIPOS>BOND
     1    1    2 1   
     2    1   11 1   
     3    1   12 2   
     4    2    3 2   
     5    2    8 1   
     6    3   15 1   
     7    3   16 1   
     8    4    5 1   
     9    4    6 1   
    10    4    7 2   
    11    8    9 2   
    12    8   17 1   
    13    9   10 1   
    14    9   18 1   
    15   10   11 2   
    16   10   19 1   
    17   12   13 1   
    18   12   14 1   
@<TRIPOS>SUBSTRUCTURE
     1 PMC         1 TEMP              0 ****  ****    0 ROOT
