@<TRIPOS>MOLECULE
molecule
   19    19     1     0     0
SMALL
bcc


@<TRIPOS>ATOM
      1 C2           0.0000     0.0000     0.0000 ca         1 PMC       0.400800
      2 C3           1.3930     0.0000     0.0000 ca         1 PMC      -0.053600
      3 CA           2.1570     0.0140    -1.2980 c3         1 PMC      -0.191300
      4 P1           2.3490    -1.6930    -1.9070 p5         1 PMC       1.068700
      5 O3           3.1670    -1.6800    -3.2940 o          1 PMC      -0.920500
      6 O2           3.1550    -2.5640    -0.8190 o          1 PMC      -0.920500
      7 O1           1.0140    -2.2930    -2.1270 o          1 PMC      -0.920500
      8 C4           2.0660     0.0000     1.2120 ca         1 PMC      -0.142000
      9 C5           1.3210    -0.0130     2.3810 ca         1 PMC      -0.298300
     10 C6          -0.0620    -0.0180     2.3060 ca         1 PMC       0.306200
     11 N1          -0.6750    -0.0110     1.1420 nb         1 PMC      -0.670000
     12 C           -0.7330     0.0070    -1.2860 c          1 PMC       0.794100
     13 OC1         -0.1250    -0.0880    -2.3320 o          1 PMC      -0.827300
     14 OC2         -2.0760     0.1180    -1.2960 o          1 PMC      -0.827300
     15 HCA1         1.6150     0.6000    -2.0300 hc         1 PMC       0.042700
     16 HCA2         3.1350     0.4520    -1.1370 hc         1 PMC       0.042700
     17 HC4          3.1490     0.0020     1.2440 ha         1 PMC       0.112000
     18 HC5          1.8160    -0.0160     3.3450 ha         1 PMC       0.059000
     19 HC6         -0.6470    -0.0270     3.2170 h4         1 PMC      -0.055900
@<TRIPOS>BOND
     1     1     2 ar
     2     1    11 ar
     3     1    12 1
     4     2     3 1
     5     2     8 ar
     6     3     4 1
     7     3    15 1
     8     3    16 1
     9     4     5 1
    10     4     6 1
    11     4     7 1
    12     8     9 ar
    13     8    17 1
    14     9    10 ar
    15     9    18 1
    16    10    11 ar
    17    10    19 1
    18    12    13 1
    19    12    14 1
@<TRIPOS>SUBSTRUCTURE
     1 PMC         1 TEMP              0 ****  ****    0 ROOT
