@<TRIPOS>MOLECULE
molecule
   45    49     1     0     0
SMALL
bcc


@<TRIPOS>ATOM
      1 C2B          0.0000     0.0000     0.0000 ca         1 PMD       0.998900
      2 C4B         -0.1680    -0.0150     2.3070 ca         1 PMD       0.716900
      3 C4           1.2930    -0.0100     2.3700 ca         1 PMD       0.073000
      4 C6B          3.2670    -0.0110     3.5230 ca         1 PMD       0.270300
      5 C7B          3.9750    -0.0010     2.3230 ca         1 PMD       0.370900
      6 C8           2.0090     0.0000     1.1470 ca         1 PMD       0.634000
      7 C9B          4.0160    -0.0170     4.8300 c3         1 PMD      -0.090000
      8 C0'          5.1000     1.3220     6.3400 ca         1 PMD      -0.040200
      9 C1'          5.6220     0.0060     6.7680 ca         1 PMD      -0.152000
     10 C2'          6.5070    -0.0770     7.7340 ca         1 PMD      -0.117500
     11 C3'          6.9870     1.1470     8.3980 ca         1 PMD      -0.139000
     12 C4'          6.5210     2.3170     8.0220 ca         1 PMD      -0.102000
     13 C5'          5.5220     2.4080     6.9370 ca         1 PMD      -0.048000
     14 C6'          5.0170     3.7310     6.5550 cc         1 PMD      -0.106500
     15 C6           3.7830     3.9780     6.2460 cd         1 PMD      -0.106500
     16 C7'          2.7160     2.9710     6.2320 ca         1 PMD      -0.048000
     17 C8'          1.3760     3.3510     6.7240 ca         1 PMD      -0.102000
     18 C9'          0.3980     2.4730     6.7300 ca         1 PMD      -0.139000
     19 CA'          0.6430     1.1040     6.2440 ca         1 PMD      -0.117500
     20 CB'          1.8340     0.7690     5.8050 ca         1 PMD      -0.152000
     21 CC'          2.9340     1.7560     5.7970 ca         1 PMD      -0.040200
     22 N1'          1.3170     0.0000     0.0000 nb         1 PMD      -0.766000
     23 N2'         -0.6550     0.0050    -1.2170 nv         1 PMD      -1.060500
     24 N3'         -0.7330    -0.0100     1.1080 nb         1 PMD      -0.837000
     25 N4'         -0.9310    -0.0260     3.4540 nv         1 PMD      -0.978500
     26 N5'          1.9510    -0.0150     3.5260 nb         1 PMD      -0.619000
     27 N8'          3.3430     0.0040     1.1680 nb         1 PMD      -0.636000
     28 N0'          4.1710     1.3610     5.3120 na         1 PMD       0.013700
     29 H7'1         5.0580     0.0020     2.3400 h4         1 PMD       0.040100
     30 H9'1         3.4630    -0.5950     5.5610 h1         1 PMD       0.068200
     31 H9'2         4.9930    -0.4600     4.6840 h1         1 PMD       0.068200
     32 H2'1         6.8870    -1.0450     8.0400 ha         1 PMD       0.125500
     33 H3'1         7.7170     1.0830     9.1960 ha         1 PMD       0.131500
     34 H4'1         6.8730     3.2180     8.5090 ha         1 PMD       0.134000
     35 H6'1         5.7200     4.5540     6.5290 ha         1 PMD       0.129000
     36 H61          3.5230     4.9950     5.9790 ha         1 PMD       0.129000
     37 H8'1         1.1990     4.3580     7.0810 ha         1 PMD       0.134000
     38 H9B         -0.5830     2.7550     7.0940 ha         1 PMD       0.131500
     39 H10'        -0.1600     0.3760     6.2470 ha         1 PMD       0.125500
     40 H11'         2.0120    -0.2380     5.4480 ha         1 PMD       0.149500
     41 HN21        -0.8940     0.8730    -1.6530 hn         1 PMD       0.448300
     42 HN22        -0.8900    -0.8600    -1.6620 hn         1 PMD       0.448300
     43 HN41        -1.8620     0.3430     3.4390 hn         1 PMD       0.452800
     44 HN42        -0.5760    -0.4520     4.2870 hn         1 PMD       0.452800
     45 H1'1         5.2710    -0.8960     6.2810 ha         1 PMD       0.149500
@<TRIPOS>BOND
     1     1    22 ar
     2     1    23 1
     3     1    24 ar
     4     2     3 ar
     5     2    24 ar
     6     2    25 1
     7     3     6 ar
     8     3    26 ar
     9     4     5 ar
    10     4     7 1
    11     4    26 ar
    12     5    27 ar
    13     5    29 1
    14     6    22 ar
    15     6    27 ar
    16     7    28 1
    17     7    30 1
    18     7    31 1
    19     8     9 ar
    20     8    13 ar
    21     8    28 1
    22     9    10 ar
    23     9    45 1
    24    10    11 ar
    25    10    32 1
    26    11    12 ar
    27    11    33 1
    28    12    13 ar
    29    12    34 1
    30    13    14 1
    31    14    15 2
    32    14    35 1
    33    15    16 1
    34    15    36 1
    35    16    17 ar
    36    16    21 ar
    37    17    18 ar
    38    17    37 1
    39    18    19 ar
    40    18    38 1
    41    19    20 ar
    42    19    39 1
    43    20    21 ar
    44    20    40 1
    45    21    28 1
    46    23    41 1
    47    23    42 1
    48    25    43 1
    49    25    44 1
@<TRIPOS>SUBSTRUCTURE
     1 PMD         1 TEMP              0 ****  ****    0 ROOT
