@<TRIPOS>MOLECULE
molecule
   39    39     1     0     0
SMALL
bcc


@<TRIPOS>ATOM
      1 N1           0.0000     0.0000     0.0000 nz         1 PME      -0.786600
      2 C2           1.4690     0.0000     0.0000 c3         1 PME       0.058500
      3 C3           1.9780     0.0000     1.4420 c3         1 PME      -0.215400
      4 C4           1.4760     1.2310     2.1520 c          1 PME       0.876600
      5 O5           1.8000     1.4440     3.4360 o          1 PME      -0.812300
      6 O6           0.7820     2.0260     1.5640 o          1 PME      -0.812300
      7 C7           1.9710    -1.2320    -0.7100 c          1 PME       0.638100
      8 O8           1.3140    -2.2520    -0.6920 o          1 PME      -0.616100
      9 N9           3.1470    -1.1990    -1.3640 ns         1 PME      -0.548900
     10 C10          3.6360    -2.3950    -2.0540 c3         1 PME       0.082700
     11 C11          4.4850    -1.9810    -3.2560 c3         1 PME      -0.045100
     12 C12          3.6490    -1.1620    -4.2030 ca         1 PME      -0.095300
     13 C13          3.5910     0.2120    -4.0630 ca         1 PME      -0.124000
     14 C14          2.8230     0.9650    -4.9320 ca         1 PME      -0.124500
     15 C15          2.1130     0.3430    -5.9420 ca         1 PME      -0.124000
     16 C16          2.1730    -1.0300    -6.0840 ca         1 PME      -0.124500
     17 C17          2.9440    -1.7820    -5.2170 ca         1 PME      -0.124000
     18 C18          4.4730    -3.2150    -1.1050 c          1 PME       0.620100
     19 O19          4.5230    -4.4160    -1.2280 o          1 PME      -0.529000
     20 O20          5.1610    -2.6120    -0.1260 os         1 PME      -0.439900
     21 C21          5.9680    -3.4030     0.7880 c3         1 PME       0.145700
     22 HN11        -0.3340    -0.3840    -0.8620 hn         1 PME       0.457800
     23 HN12        -0.3340    -0.5550     0.7630 hn         1 PME       0.457800
     24 H2           1.8300     0.8840    -0.5110 hx         1 PME       0.119700
     25 H31          1.6170    -0.8840     1.9530 hc         1 PME       0.082700
     26 H32          3.0620    -0.0010     1.4430 hc         1 PME       0.082700
     27 HN9          3.7100    -0.3720    -1.3380 hn         1 PME       0.336500
     28 H10          2.7930    -2.9850    -2.3940 h1         1 PME       0.122700
     29 H111         4.8460    -2.8660    -3.7660 hc         1 PME       0.074200
     30 H112         5.3290    -1.3920    -2.9160 hc         1 PME       0.074200
     31 H13          4.1480     0.7000    -3.2720 ha         1 PME       0.131500
     32 H14          2.7770     2.0420    -4.8220 ha         1 PME       0.136500
     33 H15          1.5100     0.9320    -6.6220 ha         1 PME       0.136000
     34 H16          1.6190    -1.5170    -6.8770 ha         1 PME       0.136500
     35 H17          2.9900    -2.8580    -5.3290 ha         1 PME       0.131500
     36 H211         6.8060    -3.8310     0.2510 h1         1 PME       0.054033
     37 H212         5.3630    -4.1970     1.2080 h1         1 PME       0.054033
     38 H213         6.3360    -2.7690     1.5850 h1         1 PME       0.054033
     39 H131        -0.3340     0.9410     0.0700 hn         1 PME       0.457800
@<TRIPOS>BOND
     1     1     2 1
     2     1    22 1
     3     1    23 1
     4     2     3 1
     5     2     7 1
     6     2    24 1
     7     3     4 1
     8     3    25 1
     9     3    26 1
    10     4     5 1
    11     4     6 1
    12     7     8 2
    13     7     9 1
    14     9    10 1
    15     9    27 1
    16    10    11 1
    17    10    18 1
    18    10    28 1
    19    11    12 1
    20    11    29 1
    21    11    30 1
    22    12    13 ar
    23    12    17 ar
    24    13    14 ar
    25    13    31 1
    26    14    15 ar
    27    14    32 1
    28    15    16 ar
    29    15    33 1
    30    16    17 ar
    31    16    34 1
    32    17    35 1
    33    18    19 2
    34    18    20 1
    35    20    21 1
    36    21    36 1
    37    21    37 1
    38    21    38 1
    39    39     1 1
@<TRIPOS>SUBSTRUCTURE
     1 PME         1 TEMP              0 ****  ****    0 ROOT
