@<TRIPOS>MOLECULE
PME
   39    39     1     0     0
SMALL
bcc


@<TRIPOS>ATOM
      1 N1           0.0000     0.0000     0.0000 nz         1 PME       0.066400
      2 C2           1.4690     0.0000     0.0000 c3         1 PME      -0.116500
      3 C3           1.9780     0.0000     1.4420 c3         1 PME      -0.149400
      4 C4           1.4760     1.2310     2.1520 c          1 PME       0.959600
      5 O5           1.8000     1.4440     3.4360 o          1 PME      -0.854300
      6 O6           0.7820     2.0260     1.5640 o          1 PME      -0.854300
      7 C7           1.9710    -1.2320    -0.7100 c          1 PME       0.554100
      8 O8           1.3140    -2.2520    -0.6920 o          1 PME      -0.658100
      9 N9           3.1470    -1.1990    -1.3640 ns         1 PME      -0.135900
     10 C10          3.6360    -2.3950    -2.0540 c3         1 PME      -0.027300
     11 C11          4.4850    -1.9810    -3.2560 c3         1 PME       0.026900
     12 C12          3.6490    -1.1620    -4.2030 ca         1 PME      -0.112300
     13 C13          3.5910     0.2120    -4.0630 ca         1 PME      -0.098500
     14 C14          2.8230     0.9650    -4.9320 ca         1 PME      -0.094500
     15 C15          2.1130     0.3430    -5.9420 ca         1 PME      -0.095000
     16 C16          2.1730    -1.0300    -6.0840 ca         1 PME      -0.094500
     17 C17          2.9440    -1.7820    -5.2170 ca         1 PME      -0.098500
     18 C18          4.4730    -3.2150    -1.1050 c          1 PME       0.679100
     19 O19          4.5230    -4.4160    -1.2280 o          1 PME      -0.557000
     20 O20          5.1610    -2.6120    -0.1260 os         1 PME      -0.429900
     21 C21          5.9680    -3.4030     0.7880 c3         1 PME       0.280700
     22 HN11        -0.3340    -0.3840    -0.8620 hn         1 PME       0.231467
     23 HN12        -0.3340    -0.5550     0.7630 hn         1 PME       0.231467
     24 H2           1.8300     0.8840    -0.5110 hx         1 PME       0.093700
     25 H31          1.6170    -0.8840     1.9530 hc         1 PME       0.050200
     26 H32          3.0620    -0.0010     1.4430 hc         1 PME       0.050200
     27 HN9          3.7100    -0.3720    -1.3380 hn         1 PME       0.194500
     28 H10          2.7930    -2.9850    -2.3940 h1         1 PME       0.091700
     29 H111         4.8460    -2.8660    -3.7660 hc         1 PME       0.040200
     30 H112         5.3290    -1.3920    -2.9160 hc         1 PME       0.040200
     31 H13          4.1480     0.7000    -3.2720 ha         1 PME       0.108000
     32 H14          2.7770     2.0420    -4.8220 ha         1 PME       0.109000
     33 H15          1.5100     0.9320    -6.6220 ha         1 PME       0.108000
     34 H16          1.6190    -1.5170    -6.8770 ha         1 PME       0.109000
     35 H17          2.9900    -2.8580    -5.3290 ha         1 PME       0.108000
     36 H211         6.8060    -3.8310     0.2510 h1         1 PME       0.005367
     37 H212         5.3630    -4.1970     1.2080 h1         1 PME       0.005367
     38 H213         6.3360    -2.7690     1.5850 h1         1 PME       0.005367
     39 H131        -0.3340     0.9410     0.0700 hn         1 PME       0.231467
@<TRIPOS>BOND
     1     1     2 1   
     2     1    22 1   
     3     1    23 1   
     4     1    39 1   
     5     2     3 1   
     6     2     7 1   
     7     2    24 1   
     8     3     4 1   
     9     3    25 1   
    10     3    26 1   
    11     4     5 1   
    12     4     6 1   
    13     7     8 2   
    14     7     9 1   
    15     9    10 1   
    16     9    27 1   
    17    10    11 1   
    18    10    18 1   
    19    10    28 1   
    20    11    12 1   
    21    11    29 1   
    22    11    30 1   
    23    12    13 ar  
    24    12    17 ar  
    25    13    14 ar  
    26    13    31 1   
    27    14    15 ar  
    28    14    32 1   
    29    15    16 ar  
    30    15    33 1   
    31    16    17 ar  
    32    16    34 1   
    33    17    35 1   
    34    18    19 2   
    35    18    20 1   
    36    20    21 1   
    37    21    36 1   
    38    21    37 1   
    39    21    38 1   
@<TRIPOS>SUBSTRUCTURE
     1 PME         1 TEMP              0 ****  ****    0 ROOT
