@<TRIPOS>MOLECULE
molecule
   18    18     1     0     0
SMALL
bcc


@<TRIPOS>ATOM
      1 C9           0.0000     0.0000     0.0000 ca         1 PMF      -0.123000
      2 C10          1.3820     0.0000     0.0000 ca         1 PMF      -0.106500
      3 C5          -0.6920     0.0090     1.1970 ca         1 PMF      -0.112000
      4 C7          -0.0010     0.0140     2.3940 ca         1 PMF      -0.123000
      5 C6           1.3810     0.0090     2.3950 ca         1 PMF      -0.106500
      6 C8           2.0730     0.0000     1.1980 ca         1 PMF      -0.102300
      7 C4           3.5800    -0.0040     1.1980 c3         1 PMF      -0.167300
      8 O2           4.1470    -2.2740     2.5170 o          1 PMF      -0.607300
      9 O1           3.7300    -2.4360     0.0710 o          1 PMF      -0.607300
     10 S1           4.1800    -1.7170     1.2100 s6         1 PMF       1.415700
     11 F1           5.7570    -1.5550     0.9310 f          1 PMF      -0.273900
     12 HC9         -0.5410    -0.0020    -0.9380 ha         1 PMF       0.138000
     13 H10C         1.9240    -0.0070    -0.9380 ha         1 PMF       0.139500
     14 HC5         -1.7750     0.0100     1.1960 ha         1 PMF       0.136000
     15 HC7         -0.5430     0.0210     3.3320 ha         1 PMF       0.138000
     16 HC6          1.9230     0.0110     3.3340 ha         1 PMF       0.139500
     17 HC41         3.9420     0.5110     2.0800 h1         1 PMF       0.111700
     18 HC42         3.9430     0.5000     0.3110 h1         1 PMF       0.111700
@<TRIPOS>BOND
     1     1     2 ar
     2     1     3 ar
     3     1    12 1
     4     2     6 ar
     5     2    13 1
     6     3     4 ar
     7     3    14 1
     8     4     5 ar
     9     4    15 1
    10     5     6 ar
    11     5    16 1
    12     6     7 1
    13     7    10 1
    14     7    17 1
    15     7    18 1
    16     8    10 2
    17     9    10 2
    18    10    11 1
@<TRIPOS>SUBSTRUCTURE
     1 PMF         1 TEMP              0 ****  ****    0 ROOT
