@<TRIPOS>MOLECULE
molecule
   43    43     1     0     0
SMALL
bcc


@<TRIPOS>ATOM
      1 N1           0.0000     0.0000     0.0000 nb         1 PMG      -0.782000
      2 C2           1.4550     0.0000     0.0000 ca         1 PMG       0.257600
      3 C2A          1.9750     0.0010    -1.4360 c3         1 PMG      -0.089400
      4 C3           2.1140     0.0000     1.3520 ca         1 PMG       0.003800
      5 O3           3.4460    -0.0010     1.2450 oh         1 PMG      -0.472100
      6 C4           1.3470     0.0020     2.6190 ca         1 PMG       0.041700
      7 C4A          2.0280     0.0100     4.0240 c3         1 PMG       0.265100
      8 C5          -0.1470     0.0000     2.4100 ca         1 PMG      -0.143600
      9 C6          -0.8120    -0.0010     1.1390 ca         1 PMG       0.337200
     10 C5A         -1.1510     0.0030     3.5490 c3         1 PMG       0.285700
     11 OP4         -0.9070     0.8740     4.5770 os         1 PMG      -0.594200
     12 P           -1.7970     1.0740     5.8850 p5         1 PMG       1.359900
     13 OP1         -2.2760     2.4370     5.9870 o          1 PMG      -0.958500
     14 OP2         -0.8590     0.6020     6.9500 o          1 PMG      -0.958500
     15 OP3         -3.0100     0.1280     5.7920 o          1 PMG      -0.958500
     16 N            3.4800    -0.6380     3.9710 n7         1 PMG      -0.892200
     17 CA           4.4650    -0.8120     5.0520 c3         1 PMG       0.144200
     18 CB2          5.2450     0.5190     5.1920 c3         1 PMG      -0.117100
     19 CB1          3.7020    -1.1520     6.3860 c3         1 PMG      -0.018400
     20 CG           3.5930    -2.5800     6.8850 c3         1 PMG      -0.184400
     21 CD           2.6910    -3.3910     6.0110 c          1 PMG       0.911600
     22 OE1          1.4610    -3.1580     6.0700 o          1 PMG      -0.860300
     23 OE2          3.2330    -4.2550     5.2680 o          1 PMG      -0.860300
     24 C            5.4920    -1.9110     4.5880 c          1 PMG       0.955600
     25 O            6.3090    -2.3640     5.4090 o          1 PMG      -0.862800
     26 OXT          5.4350    -2.2760     3.3820 o          1 PMG      -0.862800
     27 H2A1         1.1520    -0.1750    -2.1180 hc         1 PMG       0.017700
     28 H2A2         2.4270     0.9600    -1.6560 hc         1 PMG       0.017700
     29 H2A3         2.7150    -0.7820    -1.5520 hc         1 PMG       0.017700
     30 HO3          3.7310     0.8090     0.8560 ho         1 PMG       0.372000
     31 H4A1         2.1090     1.0330     4.3710 h1         1 PMG       0.087700
     32 H4A2         1.4140    -0.5510     4.7180 h1         1 PMG       0.087700
     33 H6          -1.8930    -0.0020     1.0650 h4         1 PMG       0.019100
     34 H5A1        -1.1920    -0.9980     3.9610 h1         1 PMG       0.013200
     35 H5A2        -2.1240     0.2380     3.1360 h1         1 PMG       0.013200
     36 HN           3.9480    -0.3420     3.1370 hn         1 PMG       0.358800
     37 HB21         4.5600     1.3110     5.4700 hc         1 PMG      -0.000967
     38 HB22         5.7150     0.7630     4.2470 hc         1 PMG      -0.000967
     39 HB23         6.0050     0.4140     5.9560 hc         1 PMG      -0.000967
     40 HB11         4.1730    -0.5780     7.1740 hc         1 PMG       0.014700
     41 HB12         2.6910    -0.7790     6.2750 hc         1 PMG       0.014700
     42 HG1          4.5780    -3.0300     6.8930 hc         1 PMG       0.012700
     43 HG2          3.1980    -2.5740     7.8940 hc         1 PMG       0.012700
@<TRIPOS>BOND
     1     1     2 ar
     2     1     9 ar
     3     2     3 1
     4     2     4 ar
     5     3    27 1
     6     3    28 1
     7     3    29 1
     8     4     5 1
     9     4     6 ar
    10     5    30 1
    11     6     7 1
    12     6     8 ar
    13     7    16 1
    14     7    31 1
    15     7    32 1
    16     8     9 ar
    17     8    10 1
    18     9    33 1
    19    10    11 1
    20    10    34 1
    21    10    35 1
    22    11    12 1
    23    12    13 1
    24    12    14 1
    25    12    15 1
    26    16    17 1
    27    16    36 1
    28    17    18 1
    29    17    19 1
    30    17    24 1
    31    18    37 1
    32    18    38 1
    33    18    39 1
    34    19    20 1
    35    19    40 1
    36    19    41 1
    37    20    21 1
    38    20    42 1
    39    20    43 1
    40    21    22 1
    41    21    23 1
    42    24    25 1
    43    24    26 1
@<TRIPOS>SUBSTRUCTURE
     1 PMG         1 TEMP              0 ****  ****    0 ROOT
