@<TRIPOS>MOLECULE
PMH
   34    35     1     0     0
SMALL
bcc


@<TRIPOS>ATOM
      1 N1         -0.0100   -0.1170    0.0660 nb        1 PMH     -0.669000
      2 C2          1.3350   -0.0710    0.1870 ca        1 PMH      0.334600
      3 C2A         2.1910    0.1750   -1.0110 c3        1 PMH     -0.119400
      4 C3          1.9800   -0.2450    1.4450 ca        1 PMH      0.038800
      5 O3          3.3460   -0.1340    1.4170 oh        1 PMH     -0.532100
      6 C4          1.2140   -0.4800    2.6070 ca        1 PMH     -0.130300
      7 C4A         1.8570   -0.6350    3.9580 c3        1 PMH      0.203100
      8 C5         -0.1830   -0.5040    2.4660 ca        1 PMH     -0.149600
      9 C6         -0.7320   -0.3250    1.1760 ca        1 PMH      0.370200
     10 C5A        -1.0980   -0.7140    3.6370 c3        1 PMH      0.221700
     11 O4P        -2.4380   -0.6750    3.2590 os        1 PMH     -0.575200
     12 P          -3.4720    0.2200    4.1920 p5        1 PMH      1.429800
     13 O1P        -2.6930    1.3190    4.8060 o         1 PMH     -0.836000
     14 O2P        -4.7410    0.3350    3.4540 o         1 PMH     -0.836000
     15 O3P        -3.6140   -0.8250    5.4430 oh        1 PMH     -0.784400
     16 N           3.0700   -1.4410    3.9300 nh        1 PMH     -0.692600
     17 CA          3.9020   -1.3310    5.0490 cc        1 PMH     -0.259000
     18 C           4.7080   -2.4980    5.6270 cc        1 PMH      0.864300
     19 O           4.6110   -3.6860    5.2080 o         1 PMH     -0.858000
     20 ND          5.4920   -1.9720    6.6270 nd        1 PMH     -0.648300
     21 OG          5.2510   -0.6550    6.7290 os        1 PMH     -0.193100
     22 CB          4.2960   -0.2430    5.7850 cd        1 PMH      0.180600
     23 H2A1        2.6870    1.1730   -0.9080 hc        1 PMH      0.035700
     24 H2A2        1.6070    0.1570   -1.9620 hc        1 PMH      0.035700
     25 H2A3        2.9910   -0.6050   -1.0560 hc        1 PMH      0.035700
     26 HO3         3.7070   -0.4470    2.2690 ho        1 PMH      0.467000
     27 H4A1        2.1290    0.3980    4.3250 h1        1 PMH      0.047200
     28 H4A2        1.1020   -1.0530    4.6860 h1        1 PMH      0.047200
     29 H6         -1.8310   -0.3550    1.0480 h4        1 PMH      0.048100
     30 H5A1       -0.8940    0.0760    4.4190 h1        1 PMH      0.046700
     31 H5A2       -0.8750   -1.7370    4.0660 h1        1 PMH      0.046700
     32 HN          2.8640   -2.4120    3.7650 hn        1 PMH      0.395800
     33 HO         -3.0440   -0.5860    6.1650 ho        1 PMH      0.423000
     34 HB          4.0470    0.8080    5.8150 h4        1 PMH      0.012100
@<TRIPOS>BOND
     1    1    2 ar  
     2    1    9 ar  
     3    2    3 1   
     4    2    4 ar  
     5    3   23 1   
     6    3   24 1   
     7    3   25 1   
     8    4    5 1   
     9    4    6 ar  
    10    5   26 1   
    11    6    7 1   
    12    6    8 ar  
    13    7   16 1   
    14    7   27 1   
    15    7   28 1   
    16    8    9 ar  
    17    8   10 1   
    18    9   29 1   
    19   10   11 1   
    20   10   30 1   
    21   10   31 1   
    22   11   12 1   
    23   12   13 1   
    24   12   14 1   
    25   12   15 1   
    26   15   33 1   
    27   16   17 1   
    28   16   32 1   
    29   17   18 1   
    30   17   22 2   
    31   18   19 1   
    32   18   20 2   
    33   20   21 1   
    34   21   22 1   
    35   22   34 1   
@<TRIPOS>SUBSTRUCTURE
     1 PMH         1 TEMP              0 ****  ****    0 ROOT
