@<TRIPOS>MOLECULE
PMI
   25    26     1     0     0
SMALL
bcc


@<TRIPOS>ATOM
      1 O14          0.0000     0.0000     0.0000 o          1 PMI      -0.678167
      2 P10          1.4850     0.0000     0.0000 p5         1 PMI       0.394700
      3 O12          2.2030     1.2670    -0.6810 o          1 PMI      -0.678167
      4 O13          2.2020    -1.2690    -0.6790 o          1 PMI      -0.678167
      5 C8'          2.2060     0.0000     1.6660 c3         1 PMI      -0.139000
      6 C9'          1.7730    -1.2310     2.4820 c3         1 PMI       0.084400
      7 C2'          2.9040    -2.1670     2.1860 ca         1 PMI      -0.031300
      8 N11          1.6490     1.2410     2.1700 nz         1 PMI       0.089400
      9 C7'          3.7440     0.0000     1.6300 c3         1 PMI       0.084400
     10 C1'          4.0190    -1.4720     1.7040 ca         1 PMI      -0.031300
     11 C6'          5.1970    -2.1330     1.4030 ca         1 PMI      -0.088500
     12 C5'          5.2440    -3.5170     1.5800 ca         1 PMI      -0.121500
     13 C4'          4.1260    -4.2150     2.0650 ca         1 PMI      -0.121500
     14 C3'          2.9460    -3.5380     2.3770 ca         1 PMI      -0.088500
     15 H9'1         0.8420    -1.6300     2.0970 hc         1 PMI       0.022200
     16 H9'2         1.7460    -0.9930     3.5380 hc         1 PMI       0.022200
     17 H111         1.9680     2.0030     1.6050 hn         1 PMI       0.189467
     18 H112         1.9460     1.3800     3.1160 hn         1 PMI       0.189467
     19 H7'1         4.1420     0.5030     2.5030 hc         1 PMI       0.022200
     20 H7'2         4.0990     0.4040     0.6890 hc         1 PMI       0.022200
     21 H6'          6.0580    -1.5920     1.0300 ha         1 PMI       0.092000
     22 H5'          6.1520    -4.0580     1.3430 ha         1 PMI       0.081500
     23 H4'          4.1800    -5.2890     2.1960 ha         1 PMI       0.081500
     24 H3'          2.0810    -4.0730     2.7510 ha         1 PMI       0.092000
     25 H113         0.6510     1.2070     2.1130 hn         1 PMI       0.189467
@<TRIPOS>BOND
     1     1     2 1   
     2     2     3 1   
     3     2     4 1   
     4     2     5 1   
     5     5     6 1   
     6     5     8 1   
     7     5     9 1   
     8     6     7 1   
     9     6    15 1   
    10     6    16 1   
    11     7    10 ar  
    12     7    14 ar  
    13     8    17 1   
    14     8    18 1   
    15     8    25 1   
    16     9    10 1   
    17     9    19 1   
    18     9    20 1   
    19    10    11 ar  
    20    11    12 ar  
    21    11    21 1   
    22    12    13 ar  
    23    12    22 1   
    24    13    14 ar  
    25    13    23 1   
    26    14    24 1   
@<TRIPOS>SUBSTRUCTURE
     1 PMI         1 TEMP              0 ****  ****    0 ROOT
