@<TRIPOS>MOLECULE
molecule
  102   101     1     0     0
SMALL
bcc


@<TRIPOS>ATOM
      1 O1           0.0000     0.0000     0.0000 o          1 PMK      -0.913500
      2 CAA         24.6710    22.4290   -13.8140 c3         1 PMK      -0.092100
      3 CAB         17.7030    17.0540   -11.6610 c3         1 PMK      -0.090100
      4 CAC          4.8900     4.4070    -3.9420 c3         1 PMK      -0.090100
      5 CAD         14.5000    15.8890    -7.0240 c3         1 PMK      -0.092100
      6 CAE          7.8020     9.2790    -2.9880 c3         1 PMK      -0.092100
      7 CAF         11.1450    12.7230    -4.7880 c3         1 PMK      -0.090100
      8 OAG          2.1030     0.0000     1.3950 o          1 PMK      -0.913500
      9 OAL          2.1460    -1.3140    -0.7600 o          1 PMK      -0.913500
     10 CAM         23.1890    22.1110   -13.6110 c3         1 PMK      -0.084400
     11 CAN         23.0500    20.8770   -12.7170 c3         1 PMK      -0.082400
     12 CAO         21.5670    20.5570   -12.5140 c3         1 PMK      -0.082400
     13 CAP         21.4290    19.3240   -11.6190 c3         1 PMK      -0.082400
     14 CAR          3.6910     2.9600    -1.6230 c3         1 PMK      -0.095400
     15 CAT          6.9410     6.4260    -3.1500 c3         1 PMK      -0.086400
     16 CAV         10.1770     9.9020    -4.6830 c3         1 PMK      -0.084400
     17 CAX          3.5320     1.6570    -0.8360 c3         1 PMK       0.224400
     18 CAY         19.8080    17.7720   -10.5230 c3         1 PMK      -0.077400
     19 CAZ          5.1740     3.3270    -1.7060 c3         1 PMK      -0.079400
     20 CBA         18.1840    16.2970    -9.3280 c3         1 PMK      -0.077400
     21 CBB          6.8010     5.0620    -2.4700 c3         1 PMK      -0.077400
     22 CBC         16.5590    14.9040    -8.0370 c3         1 PMK      -0.077400
     23 CBD          8.4090     6.8590    -3.1260 c3         1 PMK      -0.078400
     24 CBE         14.9280    13.4340    -6.8460 c3         1 PMK      -0.077400
     25 CBF         10.0290     8.5980    -3.8950 c3         1 PMK      -0.077400
     26 CBG         13.2920    11.8910    -5.7570 c3         1 PMK      -0.077400
     27 CBH         11.6580    10.2780    -4.7720 c3         1 PMK      -0.077400
     28 OBI          2.1470     1.3150    -0.7590 os         1 PMK      -0.581200
     29 CBL         18.3250    17.4520   -10.3210 c3         1 PMK      -0.074700
     30 CBM          5.3350     4.6290    -2.4940 c3         1 PMK      -0.074700
     31 CBN         15.0770    14.6670    -7.7400 c3         1 PMK      -0.074700
     32 CBO          8.5480     8.2220    -3.8060 c3         1 PMK      -0.075700
     33 CBP         11.8070    11.5800    -5.5600 c3         1 PMK      -0.074700
     34 PBV          1.6090     0.0000     0.0000 p5         1 PMK       1.185900
     35 HAA2        25.1330    22.6250   -12.8540 hc         1 PMK       0.031700
     36 HAA1        24.7680    23.3030   -14.4470 hc         1 PMK       0.031700
     37 HAA3        25.1600    21.5860   -14.2860 hc         1 PMK       0.031700
     38 HAB2        17.7970    17.8740   -12.3610 hc         1 PMK       0.034033
     39 HAB1        16.6540    16.8210   -11.5170 hc         1 PMK       0.034033
     40 HAB3        18.2150    16.1830   -12.0520 hc         1 PMK       0.034033
     41 HAC1         5.7270     4.5820    -4.6070 hc         1 PMK       0.030700
     42 HAC2         4.5410     3.3890    -4.0600 hc         1 PMK       0.030700
     43 HAC3         4.0880     5.0940    -4.1820 hc         1 PMK       0.030700
     44 HAD1        14.2200    15.6170    -6.0130 hc         1 PMK       0.034033
     45 HAD2        13.6250    16.2410    -7.5580 hc         1 PMK       0.034033
     46 HAD3        15.2450    16.6750    -6.9930 hc         1 PMK       0.034033
     47 HAE3         7.2150     8.7920    -2.2190 hc         1 PMK       0.033367
     48 HAE1         8.5160     9.9500    -2.5270 hc         1 PMK       0.033367
     49 HAE2         7.1450     9.8430    -3.6400 hc         1 PMK       0.033367
     50 HAF1        11.2460    13.6440    -5.3490 hc         1 PMK       0.033700
     51 HAF3        10.0940    12.5010    -4.6460 hc         1 PMK       0.033700
     52 HAF2        11.6250    12.8330    -3.8230 hc         1 PMK       0.033700
     53 HAM1        22.6990    22.9550   -13.1400 hc         1 PMK       0.039700
     54 HAM2        22.7270    21.9150   -14.5710 hc         1 PMK       0.039700
     55 HAN1        23.5400    20.0330   -13.1870 hc         1 PMK       0.040700
     56 HAN2        23.5120    21.0730   -11.7570 hc         1 PMK       0.040700
     57 HAO2        21.0770    21.4010   -12.0440 hc         1 PMK       0.040700
     58 HAO1        21.1060    20.3600   -13.4740 hc         1 PMK       0.040700
     59 HAP1        21.9200    18.4800   -12.0890 hc         1 PMK       0.040700
     60 HAP2        21.8950    19.5250   -10.6620 hc         1 PMK       0.040700
     61 HAQ2        19.4860    18.8080   -12.3780 hc         1 PMK       0.042200
     62 HAQ1        19.4570    19.8490   -10.9480 hc         1 PMK       0.042200
     63 HAR1         3.1510     3.7540    -1.1220 hc         1 PMK       0.034700
     64 HAR2         3.2950     2.8290    -2.6230 hc         1 PMK       0.034700
     65 HAS1        16.2710    16.9570    -8.6030 hc         1 PMK       0.043200
     66 HAS2        16.1830    15.8120    -9.9480 hc         1 PMK       0.043200
     67 HAT2         6.6010     6.3550    -4.1760 hc         1 PMK       0.041200
     68 HAT1         6.3400     7.1560    -2.6200 hc         1 PMK       0.041200
     69 HAU1        12.9550    13.9700    -6.1830 hc         1 PMK       0.043200
     70 HAU2        12.9850    12.9290    -7.6130 hc         1 PMK       0.043200
     71 HAV2         9.6330    10.6920    -4.1800 hc         1 PMK       0.042200
     72 HAV1         9.7780     9.7670    -5.6820 hc         1 PMK       0.042200
     73 HAX2         4.0720     0.8630    -1.3380 h1         1 PMK       0.007200
     74 HAX1         3.9270     1.7880     0.1640 h1         1 PMK       0.007200
     75 HAY2        20.2990    16.9280   -10.9930 hc         1 PMK       0.041200
     76 HAY1        20.2690    17.9680    -9.5620 hc         1 PMK       0.041200
     77 HAZ1         5.5700     3.4580    -0.7060 hc         1 PMK       0.034700
     78 HAZ2         5.7150     2.5330    -2.2070 hc         1 PMK       0.034700
     79 HBA2        18.7020    16.5440    -8.4090 hc         1 PMK       0.041200
     80 HBA1        18.6150    15.3990    -9.7550 hc         1 PMK       0.041200
     81 HBB1         7.4020     4.3320    -3.0000 hc         1 PMK       0.037200
     82 HBB2         7.1410     5.1330    -1.4440 hc         1 PMK       0.037200
     83 HBC2        16.9910    14.0070    -8.4640 hc         1 PMK       0.041200
     84 HBC1        17.0770    15.1520    -7.1180 hc         1 PMK       0.041200
     85 HBD2         8.7480     6.9310    -2.1000 hc         1 PMK       0.039200
     86 HBD1         9.0090     6.1290    -3.6550 hc         1 PMK       0.039200
     87 HBE2        15.3860    13.6280    -5.8830 hc         1 PMK       0.041200
     88 HBE1        15.4150    12.5870    -7.3130 hc         1 PMK       0.041200
     89 HBF1        10.5730     7.8080    -4.3980 hc         1 PMK       0.040200
     90 HBF2        10.4280     8.7330    -2.8960 hc         1 PMK       0.040200
     91 HBG2        13.7510    12.0850    -4.7940 hc         1 PMK       0.040700
     92 HBG1        13.7800    11.0450    -6.2240 hc         1 PMK       0.040700
     93 HBH1        12.2020     9.4870    -5.2740 hc         1 PMK       0.040200
     94 HBH2        12.0570    10.4120    -3.7740 hc         1 PMK       0.040200
     95 HBL1        17.8170    18.3260    -9.9320 hc         1 PMK       0.049700
     96 HBM1         4.7230     5.4020    -2.0430 hc         1 PMK       0.044700
     97 HBN1        14.5430    14.5060    -8.6690 hc         1 PMK       0.049700
     98 HBO1         8.1270     8.1740    -4.8030 hc         1 PMK       0.048700
     99 HBP1        11.3300    11.4730    -6.5270 hc         1 PMK       0.049700
    100 CAU         13.4420    13.1230    -6.6500 c3         1 PMK      -0.084400
    101 CAS         16.7010    16.0590    -9.0300 c3         1 PMK      -0.085400
    102 CAQ         19.9470    19.0050   -11.4180 c3         1 PMK      -0.083400
@<TRIPOS>BOND
     1     8    34 1
     2     1    34 1
     3    28    34 1
     4    28    17 1
     5    34     9 1
     6    17    14 1
     7    19    14 1
     8    19    30 1
     9     4    30 1
    10    30    21 1
    11    21    15 1
    12    23    15 1
    13    23    32 1
    14    32     6 1
    15    32    25 1
    16    25    16 1
    17     7    33 1
    18    27    16 1
    19    27    33 1
    20    33    26 1
    21    26   100 1
    22   100    24 1
    23    24    31 1
    24    31    22 1
    25    31     5 1
    26    22   101 1
    27    13    12 1
    28    13   102 1
    29    18   102 1
    30    18    29 1
    31    12    11 1
    32   101    20 1
    33    20    29 1
    34    11    10 1
    35    29     3 1
    36    10     2 1
    37     2    35 1
    38     2    36 1
    39     2    37 1
    40     3    38 1
    41     3    39 1
    42     3    40 1
    43     4    41 1
    44     4    42 1
    45     4    43 1
    46     5    44 1
    47     5    45 1
    48     5    46 1
    49     6    47 1
    50     6    48 1
    51     6    49 1
    52     7    50 1
    53     7    51 1
    54     7    52 1
    55    10    53 1
    56    10    54 1
    57    11    55 1
    58    11    56 1
    59    12    57 1
    60    12    58 1
    61    13    59 1
    62    13    60 1
    63   102    61 1
    64   102    62 1
    65    14    63 1
    66    14    64 1
    67   101    65 1
    68   101    66 1
    69    15    67 1
    70    15    68 1
    71   100    69 1
    72   100    70 1
    73    16    71 1
    74    16    72 1
    75    17    73 1
    76    17    74 1
    77    18    75 1
    78    18    76 1
    79    19    77 1
    80    19    78 1
    81    20    79 1
    82    20    80 1
    83    21    81 1
    84    21    82 1
    85    22    83 1
    86    22    84 1
    87    23    85 1
    88    23    86 1
    89    24    87 1
    90    24    88 1
    91    25    89 1
    92    25    90 1
    93    26    91 1
    94    26    92 1
    95    27    93 1
    96    27    94 1
    97    29    95 1
    98    30    96 1
    99    31    97 1
   100    32    98 1
   101    33    99 1
@<TRIPOS>SUBSTRUCTURE
     1 PMK         1 TEMP              0 ****  ****    0 ROOT
