@<TRIPOS>MOLECULE
PMK
  102   101     1     0     0
SMALL
bcc


@<TRIPOS>ATOM
      1 O1          2.1300   -1.6280   -1.5200 o         1 PMK     -0.937167
      2 CAA        24.8090   20.5730  -14.5460 c3        1 PMK     -0.092100
      3 CAB        16.9450   16.5810  -11.7810 c3        1 PMK     -0.089100
      4 CAC         5.6060    4.5300   -4.9380 c3        1 PMK     -0.084100
      5 CAD        14.4760   16.9090   -6.2450 c3        1 PMK     -0.089100
      6 CAE         7.3390    9.6510   -2.1970 c3        1 PMK     -0.088100
      7 CAF        10.7570   13.8770   -3.4140 c3        1 PMK     -0.088100
      8 OAG         4.1510   -0.8550   -0.1500 o         1 PMK     -0.937167
      9 OAL         4.4970   -1.8210   -2.4770 o         1 PMK     -0.937167
     10 CAM        23.3300   20.5380  -14.2640 c3        1 PMK     -0.080400
     11 CAN        22.9650   19.3900  -13.3470 c3        1 PMK     -0.079400
     12 CAO        21.4780   19.3600  -13.0660 c3        1 PMK     -0.079400
     13 CAP        21.1140   18.2120  -12.1500 c3        1 PMK     -0.079400
     14 CAR         4.5620    2.4310   -2.8390 c3        1 PMK     -0.099400
     15 CAT         7.0480    6.7440   -3.3280 c3        1 PMK     -0.079400
     16 CAV         9.7730   10.9090   -3.6920 c3        1 PMK     -0.079400
     17 CAX         4.6640    1.0220   -2.2400 c3        1 PMK      0.200400
     18 CAY        19.2660   17.0280  -10.9590 c3        1 PMK     -0.076400
     19 CAZ         5.9240    3.0830   -2.9230 c3        1 PMK     -0.072400
     20 CBA        17.5570   16.0930   -9.4040 c3        1 PMK     -0.076400
     21 CBB         7.1530    5.2500   -3.1060 c3        1 PMK     -0.076400
     22 CBC        16.0460   15.4420   -7.5290 c3        1 PMK     -0.076400
     23 CBD         8.3120    7.4510   -2.8820 c3        1 PMK     -0.076400
     24 CBE        14.4450   14.4300   -5.9080 c3        1 PMK     -0.076400
     25 CBF         9.6790    9.5270   -3.0790 c3        1 PMK     -0.076400
     26 CBG        12.8030   13.0720   -4.6100 c3        1 PMK     -0.076400
     27 CBH        11.1970   11.4250   -3.6500 c3        1 PMK     -0.076400
     28 OBI         3.4200    0.4410   -2.1860 os        1 PMK     -0.566200
     29 CBL        17.7860   17.0120  -10.5980 c3        1 PMK     -0.064700
     30 CBM         5.8640    4.5150   -3.4460 c3        1 PMK     -0.068700
     31 CBN        14.6600   15.5600   -6.9080 c3        1 PMK     -0.065700
     32 CBO         8.2720    8.9480   -3.1620 c3        1 PMK     -0.065700
     33 CBP        11.3370   12.7950   -4.3010 c3        1 PMK     -0.065700
     34 PBV         3.5580   -1.1570   -1.5030 p5        1 PMK      1.312900
     35 HAA2       25.3890   20.6950  -13.5990 hc        1 PMK      0.031367
     36 HAA1       25.1390   19.6250  -15.0370 hc        1 PMK      0.031367
     37 HAA3       25.0560   21.4250  -15.2230 hc        1 PMK      0.031367
     38 HAB2       17.1020   17.2700  -12.6450 hc        1 PMK      0.033700
     39 HAB1       15.8610   16.5930  -11.5150 hc        1 PMK      0.033700
     40 HAB3       17.2180   15.5460  -12.1010 hc        1 PMK      0.033700
     41 HAC1        5.4550    5.5740   -5.3060 hc        1 PMK      0.024700
     42 HAC2        6.4680    4.0820   -5.4900 hc        1 PMK      0.024700
     43 HAC3        4.6910    3.9330   -5.1720 hc        1 PMK      0.024700
     44 HAD1       13.4600   16.9840   -5.7880 hc        1 PMK      0.032033
     45 HAD2       14.5850   17.7310   -6.9930 hc        1 PMK      0.032033
     46 HAD3       15.2360   17.0590   -5.4410 hc        1 PMK      0.032033
     47 HAE3        6.3130    9.2160   -2.2650 hc        1 PMK      0.031367
     48 HAE1        7.2750   10.7410   -2.4340 hc        1 PMK      0.031367
     49 HAE2        7.7010    9.5380   -1.1470 hc        1 PMK      0.031367
     50 HAF1        9.6830   13.6650   -3.1940 hc        1 PMK      0.031700
     51 HAF3       10.8230   14.8720   -3.9140 hc        1 PMK      0.031700
     52 HAF2       11.3110   13.9300   -2.4450 hc        1 PMK      0.031700
     53 HAM1       23.0130   21.5070  -13.7940 hc        1 PMK      0.037700
     54 HAM2       22.7640   20.4400  -15.2290 hc        1 PMK      0.037700
     55 HAN1       23.5280   19.4880  -12.3820 hc        1 PMK      0.039200
     56 HAN2       23.2790   18.4210  -13.8160 hc        1 PMK      0.039200
     57 HAO2       21.1640   20.3300  -12.5960 hc        1 PMK      0.038700
     58 HAO1       20.9150   19.2640  -14.0320 hc        1 PMK      0.038700
     59 HAP1       21.4250   17.2420  -12.6210 hc        1 PMK      0.039200
     60 HAP2       21.6800   18.3070  -11.1860 hc        1 PMK      0.039200
     61 HAQ2       19.3190   19.1510  -11.3880 hc        1 PMK      0.039700
     62 HAQ1       19.0650   18.1000  -12.8340 hc        1 PMK      0.039700
     63 HAR1        3.8770    3.0490   -2.2040 hc        1 PMK      0.020200
     64 HAR2        4.0980    2.3590   -3.8560 hc        1 PMK      0.020200
     65 HAS1       16.0900   17.3900   -8.4820 hc        1 PMK      0.040200
     66 HAS2       15.3900   16.0690   -9.4940 hc        1 PMK      0.040200
     67 HAT2        6.1670    7.1430   -2.7600 hc        1 PMK      0.035700
     68 HAT1        6.8650    6.9540   -4.4140 hc        1 PMK      0.035700
     69 HAU1       12.5640   15.1650   -5.1210 hc        1 PMK      0.039200
     70 HAU2       12.4050   14.0260   -6.5130 hc        1 PMK      0.039200
     71 HAV2        9.4180   10.8720   -4.7560 hc        1 PMK      0.038700
     72 HAV1        9.0980   11.6140   -3.1410 hc        1 PMK      0.038700
     73 HAX2        5.3550    0.3940   -2.8740 h1        1 PMK      0.005700
     74 HAX1        5.1050    1.0850   -1.2040 h1        1 PMK      0.005700
     75 HAY2       19.5380   16.0590  -11.4540 hc        1 PMK      0.039700
     76 HAY1       19.8760   17.1020  -10.0190 hc        1 PMK      0.039700
     77 HAZ1        6.5920    2.4730   -3.5850 hc        1 PMK      0.033700
     78 HAZ2        6.3830    3.0830   -1.8990 hc        1 PMK      0.033700
     79 HBA2       18.3560   16.2770   -8.6360 hc        1 PMK      0.039700
     80 HBA1       17.6530   15.0260   -9.7330 hc        1 PMK      0.039700
     81 HBB1        7.9920    4.8350   -3.7240 hc        1 PMK      0.036200
     82 HBB2        7.4090    5.0590   -2.0290 hc        1 PMK      0.036200
     83 HBC2       16.8200   15.7230   -6.7670 hc        1 PMK      0.040200
     84 HBC1       16.2330   14.3720   -7.8140 hc        1 PMK      0.040200
     85 HBD2        8.4720    7.2810   -1.7860 hc        1 PMK      0.038200
     86 HBD1        9.1870    6.9970   -3.4190 hc        1 PMK      0.038200
     87 HBE2       15.0220   14.6470   -4.9710 hc        1 PMK      0.039700
     88 HBE1       14.8540   13.4750   -6.3340 hc        1 PMK      0.039700
     89 HBF1       10.0020    9.5680   -2.0050 hc        1 PMK      0.038700
     90 HBF2       10.3910    8.8440   -3.6130 hc        1 PMK      0.038700
     91 HBG2       13.3500   13.2870   -3.6550 hc        1 PMK      0.039200
     92 HBG1       13.2670   12.1520   -5.0570 hc        1 PMK      0.039200
     93 HBH1       11.8620   10.6920   -4.1790 hc        1 PMK      0.039200
     94 HBH2       11.5460   11.4810   -2.5860 hc        1 PMK      0.039200
     95 HBL1       17.4820   18.0570  -10.3050 hc        1 PMK      0.045700
     96 HBM1        5.0100    5.0410   -2.9320 hc        1 PMK      0.041700
     97 HBN1       13.8940   15.4570   -7.7290 hc        1 PMK      0.048700
     98 HBO1        7.8870    9.1030   -4.2090 hc        1 PMK      0.044700
     99 HBP1       10.7660   12.7850   -5.2730 hc        1 PMK      0.047700
    100 CAU        12.9830   14.2270   -5.5720 c3        1 PMK     -0.079400
    101 CAS        16.2040   16.3100   -8.7600 c3        1 PMK     -0.079400
    102 CAQ        19.6270   18.1840  -11.8670 c3        1 PMK     -0.079400
@<TRIPOS>BOND
     1    1   34 1   
     2    2   10 1   
     3    2   35 1   
     4    2   36 1   
     5    2   37 1   
     6    3   29 1   
     7    3   38 1   
     8    3   39 1   
     9    3   40 1   
    10    4   30 1   
    11    4   41 1   
    12    4   42 1   
    13    4   43 1   
    14    5   31 1   
    15    5   44 1   
    16    5   45 1   
    17    5   46 1   
    18    6   32 1   
    19    6   47 1   
    20    6   48 1   
    21    6   49 1   
    22    7   33 1   
    23    7   50 1   
    24    7   51 1   
    25    7   52 1   
    26    8   34 1   
    27    9   34 1   
    28   10   11 1   
    29   10   53 1   
    30   10   54 1   
    31   11   12 1   
    32   11   55 1   
    33   11   56 1   
    34   12   13 1   
    35   12   57 1   
    36   12   58 1   
    37   13   59 1   
    38   13   60 1   
    39   13  102 1   
    40   14   17 1   
    41   14   19 1   
    42   14   63 1   
    43   14   64 1   
    44   15   21 1   
    45   15   23 1   
    46   15   67 1   
    47   15   68 1   
    48   16   25 1   
    49   16   27 1   
    50   16   71 1   
    51   16   72 1   
    52   17   28 1   
    53   17   73 1   
    54   17   74 1   
    55   18   29 1   
    56   18   75 1   
    57   18   76 1   
    58   18  102 1   
    59   19   30 1   
    60   19   77 1   
    61   19   78 1   
    62   20   29 1   
    63   20   79 1   
    64   20   80 1   
    65   20  101 1   
    66   21   30 1   
    67   21   81 1   
    68   21   82 1   
    69   22   31 1   
    70   22   83 1   
    71   22   84 1   
    72   22  101 1   
    73   23   32 1   
    74   23   85 1   
    75   23   86 1   
    76   24   31 1   
    77   24   87 1   
    78   24   88 1   
    79   24  100 1   
    80   25   32 1   
    81   25   89 1   
    82   25   90 1   
    83   26   33 1   
    84   26   91 1   
    85   26   92 1   
    86   26  100 1   
    87   27   33 1   
    88   27   93 1   
    89   27   94 1   
    90   28   34 1   
    91   29   95 1   
    92   30   96 1   
    93   31   97 1   
    94   32   98 1   
    95   33   99 1   
    96   61  102 1   
    97   62  102 1   
    98   65  101 1   
    99   66  101 1   
   100   69  100 1   
   101   70  100 1   
@<TRIPOS>SUBSTRUCTURE
     1 PMK         1 TEMP              0 ****  ****    0 ROOT
