@<TRIPOS>MOLECULE
PML
   21    20     1     0     0
SMALL
bcc


@<TRIPOS>ATOM
      1 C1         -0.0550   -0.1200    0.0670 c         1 PML      0.904600
      2 O11         0.9600    0.5560    0.4100 o         1 PML     -0.868050
      3 O12        -0.5840   -0.9900    0.8240 o         1 PML     -0.868050
      4 C2         -0.7060    0.1480   -1.2960 c3        1 PML     -0.183400
      5 C3          0.2200   -0.1440   -2.4550 c3        1 PML     -0.062400
      6 C4         -0.4280    0.1980   -3.7820 c3        1 PML     -0.079400
      7 C5          0.4460   -0.1420   -4.9730 c3        1 PML     -0.062400
      8 C6         -0.2590    0.1520   -6.2780 c3        1 PML     -0.183400
      9 C7          0.6250   -0.1150   -7.5030 c         1 PML      0.904600
     10 O71         1.6760    0.5720   -7.6670 o         1 PML     -0.868050
     11 O72         0.2450   -0.9940   -8.3350 o         1 PML     -0.868050
     12 HC21       -1.6330   -0.4750   -1.3850 hc        1 PML      0.013700
     13 HC22       -1.0130    1.2250   -1.3250 hc        1 PML      0.013700
     14 HC31        1.1660    0.4440   -2.3260 hc        1 PML      0.036450
     15 HC32        0.5010   -1.2300   -2.4440 hc        1 PML      0.036450
     16 HC41       -1.4020   -0.3540   -3.8700 hc        1 PML      0.015700
     17 HC42       -0.6720    1.2930   -3.8030 hc        1 PML      0.015700
     18 HC51        0.7250   -1.2270   -4.9360 hc        1 PML      0.036450
     19 HC52        1.3990    0.4470   -4.9300 hc        1 PML      0.036450
     20 HC61       -1.1870   -0.4710   -6.3560 hc        1 PML      0.013700
     21 HC62       -0.5660    1.2290   -6.3020 hc        1 PML      0.013700
@<TRIPOS>BOND
     1    1    2 1   
     2    1    3 1   
     3    1    4 1   
     4    4    5 1   
     5    4   12 1   
     6    4   13 1   
     7    5    6 1   
     8    5   14 1   
     9    5   15 1   
    10    6    7 1   
    11    6   16 1   
    12    6   17 1   
    13    7    8 1   
    14    7   18 1   
    15    7   19 1   
    16    8    9 1   
    17    8   20 1   
    18    8   21 1   
    19    9   10 1   
    20    9   11 1   
@<TRIPOS>SUBSTRUCTURE
     1 PML         1 TEMP              0 ****  ****    0 ROOT
