@<TRIPOS>MOLECULE
molecule
   21    20     1     0     0
SMALL
bcc


@<TRIPOS>ATOM
      1 C1           0.0000     0.0000     0.0000 c          1 PML       0.890600
      2 O11          1.2090     0.0000     0.0000 o          1 PML      -0.871300
      3 O12         -0.6690     0.0000     1.1640 o          1 PML      -0.871300
      4 C2          -0.7530     0.0000    -1.3040 c3         1 PML      -0.181400
      5 C3           0.2390     0.0000    -2.4670 c3         1 PML      -0.063400
      6 C4          -0.5260     0.0000    -3.7920 c3         1 PML      -0.094400
      7 C5           0.4670     0.0000    -4.9550 c3         1 PML      -0.063400
      8 C6          -0.2980     0.0000    -6.2790 c3         1 PML      -0.181400
      9 C7           0.6790     0.0000    -7.4250 c          1 PML       0.890600
     10 O71          1.8670     0.0000    -7.2060 o          1 PML      -0.871300
     11 O72          0.2320     0.0000    -8.6910 o          1 PML      -0.871300
     12 HC21        -1.3760    -0.8840    -1.3610 hc         1 PML       0.021700
     13 HC22        -1.3760     0.8840    -1.3610 hc         1 PML       0.021700
     14 HC31         0.8620     0.8840    -2.4110 hc         1 PML       0.041700
     15 HC32         0.8620    -0.8840    -2.4110 hc         1 PML       0.041700
     16 HC41        -1.1490     0.8840    -3.8490 hc         1 PML       0.015700
     17 HC42        -1.1490    -0.8840    -3.8490 hc         1 PML       0.015700
     18 HC51         1.0900     0.8840    -4.8980 hc         1 PML       0.041700
     19 HC52         1.0900    -0.8840    -4.8980 hc         1 PML       0.041700
     20 HC61        -0.9210     0.8840    -6.3360 hc         1 PML       0.021700
     21 HC62        -0.9210    -0.8840    -6.3360 hc         1 PML       0.021700
@<TRIPOS>BOND
     1     1     2 1
     2     1     3 1
     3     1     4 1
     4     4     5 1
     5     4    12 1
     6     4    13 1
     7     5     6 1
     8     5    14 1
     9     5    15 1
    10     6     7 1
    11     6    16 1
    12     6    17 1
    13     7     8 1
    14     7    18 1
    15     7    19 1
    16     8     9 1
    17     8    20 1
    18     8    21 1
    19     9    10 1
    20     9    11 1
@<TRIPOS>SUBSTRUCTURE
     1 PML         1 TEMP              0 ****  ****    0 ROOT
