@<TRIPOS>MOLECULE
PMM
   24    25     1     0     0
SMALL
bcc


@<TRIPOS>ATOM
      1 N5         -0.1640    0.4240   -0.1930 ne        1 PMM     -0.547300
      2 C6          1.0780   -0.0470   -0.3240 ce        1 PMM     -0.031700
      3 C7          1.7730   -0.7600    0.7450 c1        1 PMM      0.013500
      4 N8          1.1960   -0.9640    1.9140 nf        1 PMM     -0.608700
      5 N1         -0.7270   -0.6740    3.3380 nc        1 PMM     -0.701000
      6 C2         -1.9660   -0.2270    3.4940 cc        1 PMM      0.384900
      7 N2         -2.6670   -0.4390    4.7490 nh        1 PMM     -0.460100
      8 N3         -2.6980    0.4530    2.5020 n         1 PMM     -0.504400
      9 C4         -2.1460    0.6740    1.2210 c         1 PMM      0.639200
     10 O4         -2.8990    1.2490    0.4080 o         1 PMM     -0.678500
     11 C4A        -0.7700    0.2020    1.0230 cd        1 PMM      0.134000
     12 C8A        -0.0940   -0.4840    2.0940 cd        1 PMM      0.518000
     13 C9          1.8120    0.1060   -1.6420 c3        1 PMM      0.250600
     14 O10         2.9120    0.9490   -1.5230 os        1 PMM     -0.577200
     15 PA          4.4040    0.2980   -1.8510 p5        1 PMM      1.438800
     16 O1P         4.1960   -0.7570   -2.8730 o         1 PMM     -0.858000
     17 O2P         5.3510    1.4190   -2.0460 o         1 PMM     -0.858000
     18 O3P         4.6750   -0.3990   -0.4150 oh        1 PMM     -0.814400
     19 H7          3.8820   -0.6610    0.0630 ho        1 PMM      0.478000
     20 HN21       -2.5920    0.3940    5.3040 hn        1 PMM      0.206700
     21 HN22       -2.2480   -1.2010    5.2490 hn        1 PMM      0.206700
     22 HN3        -3.6420    0.7130    2.6660 hn        1 PMM      0.306500
     23 H91         1.1230    0.5420   -2.4240 h1        1 PMM      0.030700
     24 H92         2.1400   -0.9220   -1.9730 h1        1 PMM      0.030700
@<TRIPOS>BOND
     1    1    2 1   
     2    1   11 2   
     3    2    3 2   
     4    2   13 1   
     5    3    4 2   
     6    4   12 1   
     7    5    6 1   
     8    5   12 2   
     9    6    7 2   
    10    6    8 1   
    11    7   20 1   
    12    7   21 1   
    13    8    9 1   
    14    8   22 1   
    15    9   10 2   
    16    9   11 1   
    17   11   12 1   
    18   13   14 1   
    19   13   23 1   
    20   13   24 1   
    21   14   15 1   
    22   15   16 1   
    23   15   17 1   
    24   15   18 1   
    25   18   19 1   
@<TRIPOS>SUBSTRUCTURE
     1 PMM         1 TEMP              0 ****  ****    0 ROOT
