@<TRIPOS>MOLECULE
PMN
   58    62     1     0     0
SMALL
bcc


@<TRIPOS>ATOM
      1 O16          0.0000     0.0000     0.0000 os         1 PMN      -0.396600
      2 O19          4.1600    -2.7740    -2.8300 o          1 PMN      -0.533100
      3 O20          4.2100     1.4500    -3.9440 o          1 PMN      -0.636100
      4 O32          4.2990     5.7440    -5.3510 o          1 PMN      -0.884300
      5 O33          4.8140     6.2340    -7.4550 o          1 PMN      -0.884300
      6 N28          2.5140     0.9980    -5.3020 ns         1 PMN       0.002900
      7 C1           3.2140     0.7950    -4.1680 c          1 PMN       0.560100
      8 C2           2.7590    -0.2480    -3.1800 c3         1 PMN      -0.128400
      9 C3           3.7210    -0.2770    -1.9900 c3         1 PMN      -0.006400
     10 C4           3.3380    -1.4330    -1.0480 c3         1 PMN      -0.139000
     11 C5           3.4840    -2.7350    -1.8250 c          1 PMN       0.611300
     12 C6           2.7930    -3.9270    -1.3350 ce         1 PMN      -0.228200
     13 C7           1.8000    -3.8270    -0.4510 c2         1 PMN      -0.065200
     14 C8           1.3400    -2.5280     0.0890 c3         1 PMN      -0.026800
     15 C9           1.8860    -1.3120    -0.6440 c3         1 PMN      -0.076700
     16 C10          1.4630     0.0000     0.0000 c3         1 PMN       0.191100
     17 C11          1.7270     0.0000     1.5260 c3         1 PMN      -0.068400
     18 C12          0.7630    -1.1460     1.9620 c3         1 PMN      -0.076700
     19 C13          1.5710    -2.4330     1.6130 c3         1 PMN      -0.028400
     20 C14         -0.2080    -2.3790     0.0440 c3         1 PMN      -0.046400
     21 C15         -0.3700    -1.0830     0.8930 c3         1 PMN       0.149800
     22 C17         -1.7650    -0.9200     1.4990 c3         1 PMN       0.020900
     23 C18          4.3060    -1.4460     0.1320 c3         1 PMN      -0.000100
     24 C22          3.9030     4.0390    -6.8890 ca         1 PMN      -0.188600
     25 C23          3.4190     3.1590    -5.9100 ca         1 PMN       0.224100
     26 C24          2.9990     1.8860    -6.2760 ca         1 PMN      -0.210400
     27 C25          3.0610     1.4900    -7.6100 ca         1 PMN       0.111100
     28 C26          3.5420     2.3660    -8.5770 ca         1 PMN      -0.225000
     29 C27          3.9550     3.6300    -8.2270 ca         1 PMN      -0.013000
     30 HO30         1.9360     0.3140    -8.5770 ho         1 PMN       0.385000
     31 HO31         4.2170     3.8280    -4.3290 ho         1 PMN       0.452000
     32 HN28         1.6290     0.5490    -5.4320 hn         1 PMN       0.146500
     33 H21          2.7480    -1.2190    -3.6590 hc         1 PMN       0.034200
     34 H22          1.7620    -0.0050    -2.8320 hc         1 PMN       0.034200
     35 H31          3.6600     0.6620    -1.4530 hc         1 PMN       0.045700
     36 H32          4.7330    -0.4230    -2.3470 hc         1 PMN       0.045700
     37 H6           3.0910    -4.9040    -1.6960 ha         1 PMN       0.118000
     38 H7           1.3110    -4.7330    -0.1140 ha         1 PMN       0.097000
     39 H9           1.3560    -1.3180    -1.5890 hc         1 PMN       0.052700
     40 H10          1.8770     0.8690    -0.4970 h1         1 PMN       0.071700
     41 H111         2.7580    -0.2490     1.7460 hc         1 PMN       0.035700
     42 H112         1.4420     0.9440     1.9740 hc         1 PMN       0.035700
     43 H12          0.4230    -1.0860     2.9890 hc         1 PMN       0.044700
     44 H131         1.1630    -3.2980     2.1220 hc         1 PMN       0.027700
     45 H132         2.6220    -2.3040     1.8400 hc         1 PMN       0.027700
     46 H141        -0.6970    -3.2220     0.5170 hc         1 PMN       0.030700
     47 H142        -0.5600    -2.2320    -0.9690 hc         1 PMN       0.030700
     48 H171        -2.5080    -0.9540     0.7110 hc         1 PMN       0.009033
     49 H172        -1.8270     0.0310     2.0130 hc         1 PMN       0.009033
     50 H173        -1.9490    -1.7230     2.2020 hc         1 PMN       0.009033
     51 H181         4.2250    -0.5120     0.6750 hc         1 PMN       0.014700
     52 H182         4.0600    -2.2690     0.7910 hc         1 PMN       0.014700
     53 H183         5.3190    -1.5650    -0.2330 hc         1 PMN       0.014700
     54 H26          3.5830     2.0530    -9.6130 ha         1 PMN       0.095000
     55 H27          4.3280     4.3070    -8.9860 ha         1 PMN       0.128000
     56 C21          4.3500     5.3890    -6.5120 c          1 PMN       0.985200
     57 O31          3.3620     3.5480    -4.6110 oh         1 PMN      -0.500100
     58 O30          2.6510     0.2460    -7.9660 oh         1 PMN      -0.505100
@<TRIPOS>BOND
     1     1    16 1   
     2     1    21 1   
     3     2    11 2   
     4     3     7 2   
     5     4    56 1   
     6     5    56 1   
     7     6     7 1   
     8     6    26 1   
     9     6    32 1   
    10     7     8 1   
    11     8     9 1   
    12     8    33 1   
    13     8    34 1   
    14     9    10 1   
    15     9    35 1   
    16     9    36 1   
    17    10    11 1   
    18    10    15 1   
    19    10    23 1   
    20    11    12 1   
    21    12    13 2   
    22    12    37 1   
    23    13    14 1   
    24    13    38 1   
    25    14    15 1   
    26    14    19 1   
    27    14    20 1   
    28    15    16 1   
    29    15    39 1   
    30    16    17 1   
    31    16    40 1   
    32    17    18 1   
    33    17    41 1   
    34    17    42 1   
    35    18    19 1   
    36    18    21 1   
    37    18    43 1   
    38    19    44 1   
    39    19    45 1   
    40    20    21 1   
    41    20    46 1   
    42    20    47 1   
    43    21    22 1   
    44    22    48 1   
    45    22    49 1   
    46    22    50 1   
    47    23    51 1   
    48    23    52 1   
    49    23    53 1   
    50    24    25 ar  
    51    24    29 ar  
    52    24    56 1   
    53    25    26 ar  
    54    25    57 1   
    55    26    27 ar  
    56    27    28 ar  
    57    27    58 1   
    58    28    29 ar  
    59    28    54 1   
    60    29    55 1   
    61    30    58 1   
    62    31    57 1   
@<TRIPOS>SUBSTRUCTURE
     1 PMN         1 TEMP              0 ****  ****    0 ROOT
