@<TRIPOS>MOLECULE
PMO
   39    41     1     0     0
SMALL
bcc


@<TRIPOS>ATOM
      1 N3          0.2180    0.8940    0.2250 nc        1 PMO     -0.625100
      2 N1          1.9920    0.5220    1.6510 na        1 PMO     -0.153300
      3 C2          1.5580    0.7930    0.3410 cd        1 PMO      0.464700
      4 C7A         0.8340    0.4140    2.4300 ca        1 PMO     -0.082200
      5 C3A        -0.2830    0.6620    1.5190 ca        1 PMO      0.088400
      6 C4         -1.5930    0.6280    2.0060 ca        1 PMO     -0.105000
      7 C5         -1.7710    0.3650    3.3650 ca        1 PMO      0.059100
      8 C6         -0.6960    0.1270    4.2440 ca        1 PMO     -0.191000
      9 C7          0.6140    0.1480    3.7840 ca        1 PMO     -0.100000
     10 O10        -3.0910    0.4100    3.8160 os        1 PMO     -0.346900
     11 C11        -3.3950   -0.5160    4.8490 c3        1 PMO      0.122700
     12 P           7.7360   -0.6790   -1.1920 p5        1 PMO      1.331900
     13 O1P         8.3640   -0.4200    0.1500 o         1 PMO     -0.927167
     14 O2P         8.5230   -1.4290   -2.2190 o         1 PMO     -0.927167
     15 O3P         6.8850    0.4850   -1.6620 o         1 PMO     -0.927167
     16 O5'         6.4520   -1.7820   -0.7730 os        1 PMO     -0.562200
     17 C5'         5.9000   -1.6310    0.4680 c3        1 PMO      0.224400
     18 C4'         4.6330   -0.7390    0.4050 c3        1 PMO      0.054100
     19 O4'         3.8530   -0.9430    1.6110 os        1 PMO     -0.428600
     20 C3'         5.0010    0.7570    0.3360 c3        1 PMO      0.088100
     21 O3'         4.4250    1.3620   -0.8030 oh        1 PMO     -0.698800
     22 C2'         4.3860    1.3830    1.6010 c3        1 PMO      0.111100
     23 O2'         3.8280    2.6620    1.4420 oh        1 PMO     -0.609800
     24 C1'         3.3610    0.3000    2.0910 c3        1 PMO      0.211800
     25 H21         2.2980    0.9070   -0.4760 h5        1 PMO      0.118800
     26 H41        -2.4530    0.8110    1.3500 ha        1 PMO      0.145000
     27 H61        -0.8940   -0.0770    5.3040 ha        1 PMO      0.118000
     28 H71         1.4530   -0.0430    4.4670 ha        1 PMO      0.134000
     29 H111       -4.5120   -0.5750    4.8460 h1        1 PMO      0.028367
     30 H112       -2.9460   -1.5180    4.6480 h1        1 PMO      0.028367
     31 H113       -3.0330   -0.1250    5.8320 h1        1 PMO      0.028367
     32 H5'1        6.6350   -1.1760    1.1910 h1        1 PMO      0.009200
     33 H5'2        5.5680   -2.6380    0.8570 h1        1 PMO      0.009200
     34 H4'         3.9900   -1.0310   -0.4650 h1        1 PMO      0.056700
     35 H3'         6.1350    0.8610    0.2820 h1        1 PMO      0.171700
     36 HO3'        5.1070    1.2670   -1.5110 ho        1 PMO      0.510000
     37 H2'         5.1650    1.4870    2.4050 h1        1 PMO      0.077700
     38 HO2'        3.6150    2.7760    0.5030 ho        1 PMO      0.427000
     39 H1'         3.3360    0.2170    3.2150 h2        1 PMO      0.064700
@<TRIPOS>BOND
     1    1    3 2   
     2    1    5 1   
     3    2    3 1   
     4    2    4 1   
     5    2   24 1   
     6    3   25 1   
     7    4    5 ar  
     8    4    9 ar  
     9    5    6 ar  
    10    6    7 ar  
    11    6   26 1   
    12    7    8 ar  
    13    7   10 1   
    14    8    9 ar  
    15    8   27 1   
    16    9   28 1   
    17   10   11 1   
    18   11   29 1   
    19   11   30 1   
    20   11   31 1   
    21   12   13 1   
    22   12   14 1   
    23   12   15 1   
    24   12   16 1   
    25   16   17 1   
    26   17   18 1   
    27   17   32 1   
    28   17   33 1   
    29   18   19 1   
    30   18   20 1   
    31   18   34 1   
    32   19   24 1   
    33   20   21 1   
    34   20   22 1   
    35   20   35 1   
    36   21   36 1   
    37   22   23 1   
    38   22   24 1   
    39   22   37 1   
    40   23   38 1   
    41   24   39 1   
@<TRIPOS>SUBSTRUCTURE
     1 PMO         1 TEMP              0 ****  ****    0 ROOT
