@<TRIPOS>MOLECULE
molecule
   39    41     1     0     0
SMALL
bcc


@<TRIPOS>ATOM
      1 N3           0.0000     0.0000     0.0000 nc         1 PMO      -0.652100
      2 N1           1.7690     0.0000     1.2770 na         1 PMO      -0.143300
      3 C2           1.3010     0.0000     0.0000 cd         1 PMO       0.510700
      4 C7A          0.6710    -0.0000     2.1160 ca         1 PMO      -0.118200
      5 C3A         -0.4570    -0.0000     1.2790 ca         1 PMO       0.130400
      6 C4          -1.7350    -0.0050     1.8430 ca         1 PMO      -0.116000
      7 C5          -1.8770     0.0010     3.2150 ca         1 PMO       0.078100
      8 C6          -0.7540    -0.0000     4.0400 ca         1 PMO      -0.225000
      9 C7           0.5110    -0.0010     3.4950 ca         1 PMO      -0.086000
     10 O10         -3.1200     0.0010     3.7680 os         1 PMO      -0.310900
     11 C11         -2.9430    -0.0000     5.1850 c3         1 PMO       0.112700
     12 P            7.4550    -2.1310    -1.4050 p5         1 PMO       1.146900
     13 O1P          7.9680    -2.7090    -0.1420 o          1 PMO      -0.906167
     14 O2P          7.2840    -3.3000    -2.4980 o          1 PMO      -0.906167
     15 O3P          8.4950    -1.0320    -1.9520 o          1 PMO      -0.906167
     16 O5'          6.0280    -1.4350    -1.1350 os         1 PMO      -0.524200
     17 C5'          6.2440    -0.4140    -0.1620 c3         1 PMO       0.164400
     18 C4'          4.9210     0.2910     0.1420 c3         1 PMO       0.130100
     19 O4'          3.9720    -0.6410     0.6840 os         1 PMO      -0.357600
     20 C3'          5.1170     1.3580     1.2480 c3         1 PMO       0.086100
     21 O3'          5.5320     2.6060     0.6920 oh         1 PMO      -0.577800
     22 C2'          3.6780     1.4510     1.8280 c3         1 PMO       0.065100
     23 O2'          2.8770     2.3480     1.0580 oh         1 PMO      -0.571800
     24 C1'          3.1750    -0.0010     1.6860 c3         1 PMO       0.247800
     25 H21          1.9210    -0.0010    -0.8880 h5         1 PMO       0.103800
     26 H41         -2.6110    -0.0040     1.2060 ha         1 PMO       0.143000
     27 H61         -0.8770     0.0040     5.1160 ha         1 PMO       0.128000
     28 H71          1.3800    -0.0020     4.1420 ha         1 PMO       0.121000
     29 H111        -2.3910    -0.8840     5.4800 h1         1 PMO       0.033700
     30 H112        -3.9120    -0.0010     5.6700 h1         1 PMO       0.033700
     31 H113        -2.3930     0.8850     5.4810 h1         1 PMO       0.033700
     32 H5'1         6.9580     0.3050    -0.5450 h1         1 PMO       0.053700
     33 H5'2         6.6310    -0.8580     0.7480 h1         1 PMO       0.053700
     34 H4'          4.5210     0.7510    -0.7530 h1         1 PMO       0.072700
     35 H3'          5.8140     1.0090     2.0010 h1         1 PMO       0.059700
     36 HO3'         6.1940     2.9910     1.2420 ho         1 PMO       0.391000
     37 H2'          3.7050     1.7460     2.8700 h1         1 PMO       0.025700
     38 HO2'         2.8360     3.1840     1.4920 ho         1 PMO       0.396000
     39 H1'          3.2870    -0.5210     2.6300 h2         1 PMO       0.077700
@<TRIPOS>BOND
     1     1     3 2
     2     1     5 1
     3     2     3 1
     4     2     4 1
     5     2    24 1
     6     3    25 1
     7     4     5 ar
     8     4     9 ar
     9     5     6 ar
    10     6     7 ar
    11     6    26 1
    12     7     8 ar
    13     7    10 1
    14     8     9 ar
    15     8    27 1
    16     9    28 1
    17    10    11 1
    18    11    29 1
    19    11    30 1
    20    11    31 1
    21    12    13 1
    22    12    14 1
    23    12    15 1
    24    12    16 1
    25    16    17 1
    26    17    18 1
    27    17    32 1
    28    17    33 1
    29    18    19 1
    30    18    20 1
    31    18    34 1
    32    19    24 1
    33    20    21 1
    34    20    22 1
    35    20    35 1
    36    21    36 1
    37    22    23 1
    38    22    24 1
    39    22    37 1
    40    23    38 1
    41    24    39 1
@<TRIPOS>SUBSTRUCTURE
     1 PMO         1 TEMP              0 ****  ****    0 ROOT
