@<TRIPOS>MOLECULE
PMP
   28    28     1     0     0
SMALL
bcc


@<TRIPOS>ATOM
      1 N1           0.0000     0.0000     0.0000 nb         1 PMP      -0.566000
      2 C2           1.3190     0.0000     0.0000 ca         1 PMP       0.310600
      3 C2A          2.0650    -0.0090    -1.3100 c3         1 PMP      -0.026400
      4 C3           2.0250     0.0000     1.1920 ca         1 PMP      -0.010200
      5 O3           3.3840    -0.0000     1.1880 oh         1 PMP      -0.518100
      6 C4           1.3230     0.0130     2.3930 ca         1 PMP      -0.230300
      7 C4A          2.0510     0.0210     3.7120 c3         1 PMP       0.052100
      8 N4A          2.2890    -1.3610     4.1500 nz         1 PMP      -0.042600
      9 C5          -0.0610     0.0120     2.3480 ca         1 PMP      -0.133600
     10 C6          -0.6950     0.0060     1.1190 ca         1 PMP       0.434200
     11 C5A         -0.8660     0.0200     3.6210 c3         1 PMP       0.270700
     12 O4P         -2.2590     0.0190     3.3050 os         1 PMP      -0.439200
     13 P           -3.0550     0.0260     4.7030 p5         1 PMP       0.696900
     14 O1P         -4.6390     0.0240     4.4200 o          1 PMP      -0.684833
     15 O2P         -2.6600    -1.2830     5.5530 o          1 PMP      -0.684833
     16 O3P         -2.6930     1.2390     5.4690 o          1 PMP      -0.684833
     17 H2A1         2.7580    -0.8410    -1.3250 hc         1 PMP       0.006367
     18 H2A2         1.3600    -0.1110    -2.1260 hc         1 PMP       0.006367
     19 H2A3         2.6120     0.9200    -1.4190 hc         1 PMP       0.006367
     20 HO3          3.6980     0.8810     1.0690 ho         1 PMP       0.402000
     21 H4A1         3.0000     0.5310     3.5980 hx         1 PMP       0.071200
     22 H4A2         1.4520     0.5360     4.4530 hx         1 PMP       0.071200
     23 HNA1         1.7200    -1.9840     3.6120 hn         1 PMP       0.208800
     24 HNA2         3.2540    -1.5910     4.0180 hn         1 PMP       0.208800
     25 H6          -1.7770     0.0050     1.0760 h4         1 PMP       0.042100
     26 H5A1        -0.6270    -0.8610     4.2040 h1         1 PMP       0.011700
     27 H5A2        -0.6270     0.9080     4.1930 h1         1 PMP       0.011700
     28 H4A3         2.0840    -1.4410     5.1270 hn         1 PMP       0.208800
@<TRIPOS>BOND
     1     1     2 ar  
     2     1    10 ar  
     3     2     3 1   
     4     2     4 ar  
     5     3    17 1   
     6     3    18 1   
     7     3    19 1   
     8     4     5 1   
     9     4     6 ar  
    10     5    20 1   
    11     6     7 1   
    12     6     9 ar  
    13     7     8 1   
    14     7    21 1   
    15     7    22 1   
    16     8    23 1   
    17     8    24 1   
    18     8    28 1   
    19     9    10 ar  
    20     9    11 1   
    21    10    25 1   
    22    11    12 1   
    23    11    26 1   
    24    11    27 1   
    25    12    13 1   
    26    13    14 1   
    27    13    15 1   
    28    13    16 1   
@<TRIPOS>SUBSTRUCTURE
     1 PMP         1 TEMP              0 ****  ****    0 ROOT
