@<TRIPOS>MOLECULE
molecule
   19    19     1     0     0
SMALL
bcc


@<TRIPOS>ATOM
      1 C17          0.0000     0.0000     0.0000 c          1 PMQ       0.991600
      2 O18          1.2160     0.0000     0.0000 o          1 PMQ      -0.872300
      3 N19         -0.6740     0.0000     1.1670 ns         1 PMQ      -0.635900
      4 C20          0.0580    -0.0010     2.4350 c3         1 PMQ       0.169300
      5 C21         -0.9230    -0.0010     3.5800 ca         1 PMQ      -0.076300
      6 C22         -1.3710    -1.1990     4.1050 ca         1 PMQ      -0.120000
      7 C23         -2.2710    -1.1990     5.1550 ca         1 PMQ      -0.141000
      8 C24         -2.7200    -0.0020     5.6820 ca         1 PMQ      -0.150000
      9 C25         -2.2700     1.1950     5.1570 ca         1 PMQ      -0.141000
     10 C26         -1.3670     1.1950     4.1100 ca         1 PMQ      -0.120000
     11 HN19        -1.6750     0.0010     1.1660 hn         1 PMQ       0.285500
     12 H20          0.6810     0.8830     2.4940 h1         1 PMQ       0.034700
     13 H20A         0.6800    -0.8860     2.4930 h1         1 PMQ       0.034700
     14 H22         -1.0200    -2.1360     3.6920 ha         1 PMQ       0.136000
     15 H23         -2.6230    -2.1380     5.5660 ha         1 PMQ       0.114000
     16 H24         -3.4260    -0.0020     6.5030 ha         1 PMQ       0.111000
     17 H25         -2.6200     2.1330     5.5710 ha         1 PMQ       0.114000
     18 H26         -1.0150     2.1340     3.6990 ha         1 PMQ       0.136000
     19 OXT         -0.6720     0.0070    -1.1660 o          1 PMQ      -0.872300
@<TRIPOS>BOND
     1     1     2 1
     2     1     3 1
     3     3     4 1
     4     4     5 1
     5     5     6 ar
     6     5    10 ar
     7     6     7 ar
     8     7     8 ar
     9     8     9 ar
    10     9    10 ar
    11     3    11 1
    12     4    12 1
    13     4    13 1
    14     6    14 1
    15     7    15 1
    16     8    16 1
    17     9    17 1
    18    10    18 1
    19     1    19 1
@<TRIPOS>SUBSTRUCTURE
     1 PMQ         1 TEMP              0 ****  ****    0 ROOT
