@<TRIPOS>MOLECULE
PMS
   18    18     1     0     0
SMALL
bcc


@<TRIPOS>ATOM
      1 C           0.1070   -0.1450    0.0720 c3        1 PMS     -0.246300
      2 S           1.8050    0.4170   -0.1860 s6        1 PMS      1.426800
      3 C1         -0.4190   -0.1350    1.4450 ca        1 PMS      0.017700
      4 C2         -0.4320    1.0550    2.1920 ca        1 PMS     -0.139500
      5 C3         -0.9680    1.0750    3.4760 ca        1 PMS     -0.138000
      6 C4         -1.4970   -0.0870    4.0390 ca        1 PMS     -0.168000
      7 C5         -1.4760   -1.2750    3.3110 ca        1 PMS     -0.138000
      8 C6         -0.9420   -1.3000    2.0240 ca        1 PMS     -0.139500
      9 O3S         1.9270    0.3600   -1.5940 o         1 PMS     -0.746533
     10 O2S         1.8400    1.7320    0.3320 o         1 PMS     -0.746533
     11 O1S         2.6270   -0.5050    0.4920 o         1 PMS     -0.746533
     12 H2A        -0.5350    0.5190   -0.5620 h1        1 PMS      0.073700
     13 H1          0.0410   -1.1730   -0.3620 h1        1 PMS      0.073700
     14 H2          0.0220    1.9620    1.7540 ha        1 PMS      0.147000
     15 H3         -0.9680    2.0110    4.0520 ha        1 PMS      0.109000
     16 H4         -1.9190   -0.0680    5.0530 ha        1 PMS      0.105000
     17 H5         -1.8780   -2.1970    3.7530 ha        1 PMS      0.109000
     18 H6         -0.9210   -2.2420    1.4580 ha        1 PMS      0.147000
@<TRIPOS>BOND
     1    1    2 1   
     2    1    3 1   
     3    1   12 1   
     4    1   13 1   
     5    2    9 1   
     6    2   10 1   
     7    2   11 1   
     8    3    4 ar  
     9    3    8 ar  
    10    4    5 ar  
    11    4   14 1   
    12    5    6 ar  
    13    5   15 1   
    14    6    7 ar  
    15    6   16 1   
    16    7    8 ar  
    17    7   17 1   
    18    8   18 1   
@<TRIPOS>SUBSTRUCTURE
     1 PMS         1 TEMP              0 ****  ****    0 ROOT
