@<TRIPOS>MOLECULE
molecule
   46    48     1     0     0
SMALL
bcc


@<TRIPOS>ATOM
      1 C1           0.0000     0.0000     0.0000 c3         1 PMU       0.131300
      2 N1           1.4780     0.0000     0.0000 nh         1 PMU      -0.573000
      3 C2           2.9910     3.2930    -2.0750 ca         1 PMU       0.139100
      4 O2           0.9050    -0.8740     3.4310 oh         1 PMU      -0.597800
      5 C3           3.7610     2.6630    -1.1120 ca         1 PMU      -0.192000
      6 O3          -1.6970    -0.1740     1.7660 oh         1 PMU      -0.597800
      7 C4           3.2600     1.5740    -0.4260 ca         1 PMU      -0.123000
      8 C5           1.9800     1.1040    -0.6980 ca         1 PMU       0.065600
      9 C6           1.2020     1.7260    -1.6610 ca         1 PMU      -0.121000
     10 C7           1.7010     2.8280    -2.3510 cp         1 PMU      -0.149500
     11 C8           1.9470     0.0000     1.3980 c3         1 PMU       0.131300
     12 C9          -0.3960    -0.6110     1.3670 c3         1 PMU       0.121100
     13 C10          0.6960    -0.0240     2.3010 c3         1 PMU       0.121100
     14 C12         -0.4070     2.3720    -7.5150 c3         1 PMU      -0.086100
     15 C15          0.8720     3.5020    -3.3780 cp         1 PMU       0.567800
     16 N16          0.7670     4.8290    -3.3970 nb         1 PMU      -0.778000
     17 C17          0.0250     5.4330    -4.3140 ca         1 PMU       0.948900
     18 C18         -1.8370     1.3420    -5.7440 c3         1 PMU      -0.086100
     19 N18         -0.6350     4.7480    -5.2360 nb         1 PMU      -0.809000
     20 C19         -0.5760     3.4260    -5.2770 ca         1 PMU       0.511600
     21 C20          0.1900     2.7540    -4.3430 ca         1 PMU      -0.432600
     22 N21         -0.0630     6.8140    -4.3070 nv         1 PMU      -0.991500
     23 H1          -0.3760     1.0130    -0.0820 h1         1 PMU       0.065200
     24 H1A         -0.3760    -0.6150    -0.8090 h1         1 PMU       0.065200
     25 HO1          4.4200     4.2720    -2.8440 ho         1 PMU       0.414000
     26 HO2          0.9250    -0.3530     4.2160 ho         1 PMU       0.409000
     27 H3           4.7590     3.0250    -0.8950 ha         1 PMU       0.136000
     28 HO3         -2.2770    -0.9150     1.8140 ho         1 PMU       0.409000
     29 H4           3.8660     1.0850     0.3270 ha         1 PMU       0.140000
     30 H6           0.2030     1.3620    -1.8700 ha         1 PMU       0.150000
     31 H8           2.5230     0.8970     1.5930 h1         1 PMU       0.065200
     32 H8A          2.5510    -0.8800     1.5830 h1         1 PMU       0.065200
     33 H9          -0.3350    -1.6920     1.3370 h1         1 PMU       0.064200
     34 H10          0.4320     0.9790     2.6120 h1         1 PMU       0.064200
     35 H11         -2.1760     3.2530    -6.6700 hc         1 PMU       0.073700
     36 H12         -0.0150     3.3040    -7.9040 hc         1 PMU       0.038867
     37 H12A        -0.9370     1.8480    -8.3010 hc         1 PMU       0.038867
     38 H12B         0.4110     1.7570    -7.1590 hc         1 PMU       0.038867
     39 H18         -1.0030     0.6620    -5.6170 hc         1 PMU       0.038867
     40 H18A        -2.5550     0.9090    -6.4300 hc         1 PMU       0.038867
     41 H18B        -2.3120     1.5150    -4.7860 hc         1 PMU       0.038867
     42 H20          0.4450     1.7120    -4.5010 ha         1 PMU       0.148000
     43 HN21        -0.6120     7.2840    -4.9990 hn         1 PMU       0.449300
     44 HN2A         0.4000     7.3410    -3.5930 hn         1 PMU       0.449300
     45 O1           3.4870     4.3650    -2.7480 oh         1 PMU      -0.480100
     46 C11         -1.3340     2.6620    -6.3330 c3         1 PMU      -0.125000
@<TRIPOS>BOND
     1     1     2 1
     2     1    12 1
     3     2     8 1
     4     2    11 1
     5    45     3 1
     6     3     5 ar
     7     3    10 ar
     8     4    13 1
     9     5     7 ar
    10     6    12 1
    11     7     8 ar
    12     8     9 ar
    13     9    10 ar
    14    10    15 1
    15    11    13 1
    16    12    13 1
    17    46    14 1
    18    46    18 1
    19    46    20 1
    20    15    16 ar
    21    15    21 ar
    22    16    17 ar
    23    17    19 ar
    24    17    22 1
    25    19    20 ar
    26    20    21 ar
    27     1    23 1
    28     1    24 1
    29    45    25 1
    30     4    26 1
    31     5    27 1
    32     6    28 1
    33     7    29 1
    34     9    30 1
    35    11    31 1
    36    11    32 1
    37    12    33 1
    38    13    34 1
    39    46    35 1
    40    14    36 1
    41    14    37 1
    42    14    38 1
    43    18    39 1
    44    18    40 1
    45    18    41 1
    46    21    42 1
    47    22    43 1
    48    22    44 1
@<TRIPOS>SUBSTRUCTURE
     1 PMU         1 TEMP              0 ****  ****    0 ROOT
