@<TRIPOS>MOLECULE
PMU
   46    48     1     0     0
SMALL
bcc


@<TRIPOS>ATOM
      1 C1           0.0000     0.0000     0.0000 c3         1 PMU       0.101800
      2 N1           1.4780     0.0000     0.0000 nh         1 PMU      -0.347000
      3 C2           2.9910     3.2930    -2.0750 ca         1 PMU       0.153100
      4 O2           0.9050    -0.8740     3.4310 oh         1 PMU      -0.577800
      5 C3           3.7610     2.6630    -1.1120 ca         1 PMU      -0.172000
      6 O3          -1.6970    -0.1740     1.7660 oh         1 PMU      -0.577800
      7 C4           3.2600     1.5740    -0.4260 ca         1 PMU      -0.101000
      8 C5           1.9800     1.1040    -0.6980 ca         1 PMU      -0.015400
      9 C6           1.2020     1.7260    -1.6610 ca         1 PMU      -0.103000
     10 C7           1.7010     2.8280    -2.3510 cp         1 PMU      -0.161500
     11 C8           1.9470     0.0000     1.3980 c3         1 PMU       0.101800
     12 C9          -0.3960    -0.6110     1.3670 c3         1 PMU       0.164100
     13 C10          0.6960    -0.0240     2.3010 c3         1 PMU       0.164100
     14 C12         -0.4070     2.3720    -7.5150 c3         1 PMU       0.006900
     15 C15          0.8720     3.5020    -3.3780 cp         1 PMU       0.535800
     16 N16          0.7670     4.8290    -3.3970 nb         1 PMU      -0.674000
     17 C17          0.0250     5.4330    -4.3140 ca         1 PMU       0.710900
     18 C18         -1.8370     1.3420    -5.7440 c3         1 PMU       0.006900
     19 N18         -0.6350     4.7480    -5.2360 nb         1 PMU      -0.700000
     20 C19         -0.5760     3.4260    -5.2770 ca         1 PMU       0.465600
     21 C20          0.1900     2.7540    -4.3430 ca         1 PMU      -0.417600
     22 N21         -0.0630     6.8140    -4.3070 nv         1 PMU      -0.502500
     23 H1          -0.3760     1.0130    -0.0820 h1         1 PMU       0.036200
     24 H1A         -0.3760    -0.6150    -0.8090 h1         1 PMU       0.036200
     25 HO1          4.4200     4.2720    -2.8440 ho         1 PMU       0.394000
     26 HO2          0.9250    -0.3530     4.2160 ho         1 PMU       0.394000
     27 H3           4.7590     3.0250    -0.8950 ha         1 PMU       0.110000
     28 HO3         -2.2770    -0.9150     1.8140 ho         1 PMU       0.394000
     29 H4           3.8660     1.0850     0.3270 ha         1 PMU       0.117000
     30 H6           0.2030     1.3620    -1.8700 ha         1 PMU       0.129000
     31 H8           2.5230     0.8970     1.5930 h1         1 PMU       0.036200
     32 H8A          2.5510    -0.8800     1.5830 h1         1 PMU       0.036200
     33 H9          -0.3350    -1.6920     1.3370 h1         1 PMU       0.026200
     34 H10          0.4320     0.9790     2.6120 h1         1 PMU       0.026200
     35 H11         -2.1760     3.2530    -6.6700 hc         1 PMU       0.041700
     36 H12         -0.0150     3.3040    -7.9040 hc         1 PMU       0.005867
     37 H12A        -0.9370     1.8480    -8.3010 hc         1 PMU       0.005867
     38 H12B         0.4110     1.7570    -7.1590 hc         1 PMU       0.005867
     39 H18         -1.0030     0.6620    -5.6170 hc         1 PMU       0.005867
     40 H18A        -2.5550     0.9090    -6.4300 hc         1 PMU       0.005867
     41 H18B        -2.3120     1.5150    -4.7860 hc         1 PMU       0.005867
     42 H20          0.4450     1.7120    -4.5010 ha         1 PMU       0.137000
     43 HN21        -0.6120     7.2840    -4.9990 hn         1 PMU       0.274300
     44 HN2A         0.4000     7.3410    -3.5930 hn         1 PMU       0.274300
     45 O1           3.4870     4.3650    -2.7480 oh         1 PMU      -0.462100
     46 C11         -1.3340     2.6620    -6.3330 c3         1 PMU      -0.101000
@<TRIPOS>BOND
     1     1     2 1   
     2     1    12 1   
     3     1    23 1   
     4     1    24 1   
     5     2     8 1   
     6     2    11 1   
     7     3     5 ar  
     8     3    10 ar  
     9     3    45 1   
    10     4    13 1   
    11     4    26 1   
    12     5     7 ar  
    13     5    27 1   
    14     6    12 1   
    15     6    28 1   
    16     7     8 ar  
    17     7    29 1   
    18     8     9 ar  
    19     9    10 ar  
    20     9    30 1   
    21    10    15 1   
    22    11    13 1   
    23    11    31 1   
    24    11    32 1   
    25    12    13 1   
    26    12    33 1   
    27    13    34 1   
    28    14    36 1   
    29    14    37 1   
    30    14    38 1   
    31    14    46 1   
    32    15    16 ar  
    33    15    21 ar  
    34    16    17 ar  
    35    17    19 ar  
    36    17    22 1   
    37    18    39 1   
    38    18    40 1   
    39    18    41 1   
    40    18    46 1   
    41    19    20 ar  
    42    20    21 ar  
    43    20    46 1   
    44    21    42 1   
    45    22    43 1   
    46    22    44 1   
    47    25    45 1   
    48    35    46 1   
@<TRIPOS>SUBSTRUCTURE
     1 PMU         1 TEMP              0 ****  ****    0 ROOT
