@<TRIPOS>MOLECULE
molecule
   24    23     1     0     0
SMALL
bcc


@<TRIPOS>ATOM
      1 OP2          0.0000     0.0000     0.0000 o          1 PMV      -0.928500
      2 P            1.6100     0.0000     0.0000 p5         1 PMV       1.210900
      3 OP3          2.1470     0.0000     1.5180 o          1 PMV      -0.928500
      4 OP1          2.1030    -1.2090    -0.6990 o          1 PMV      -0.928500
      5 O5           2.1460     1.3140    -0.7600 os         1 PMV      -0.600200
      6 C5           1.9280     1.5520    -2.1520 c3         1 PMV       0.222400
      7 C4           2.5670     2.8850    -2.5470 c3         1 PMV      -0.120400
      8 C3           2.3330     3.1410    -4.0370 c3         1 PMV       0.168800
      9 O3A          0.9350     3.3050    -4.2790 oh         1 PMV      -0.586800
     10 C3A          2.8540     1.9510    -4.8470 c3         1 PMV      -0.070100
     11 C2           3.0770     4.4090    -4.4600 c3         1 PMV      -0.209400
     12 C1           2.8460     4.6610    -5.9280 c          1 PMV       0.891600
     13 O2           3.4060     5.7260    -6.5220 o          1 PMV      -0.870300
     14 O1           2.1590     3.9030    -6.5700 o          1 PMV      -0.870300
     15 H51          2.3760     0.7520    -2.7290 h1         1 PMV       0.015700
     16 H52          0.8640     1.5890    -2.3500 h1         1 PMV       0.015700
     17 H41          3.6310     2.8480    -2.3500 hc         1 PMV       0.025200
     18 H42          2.1200     3.6850    -1.9690 hc         1 PMV       0.025200
     19 HO3A         0.6230     4.0660    -3.8170 ho         1 PMV       0.374000
     20 H3A1         3.6440     1.4560    -4.2940 hc         1 PMV       0.037033
     21 H3A2         2.0450     1.2520    -5.0230 hc         1 PMV       0.037033
     22 H3A3         3.2420     2.3010    -5.7950 hc         1 PMV       0.037033
     23 H21          2.7090     5.2520    -3.8870 hc         1 PMV       0.025200
     24 H22          4.1370     4.2840    -4.2770 hc         1 PMV       0.025200
@<TRIPOS>BOND
     1     1     2 1
     2     2     4 1
     3     2     3 1
     4     2     5 1
     5     5     6 1
     6     6     7 1
     7     6    15 1
     8     6    16 1
     9     7     8 1
    10     7    17 1
    11     7    18 1
    12     8    10 1
    13     8    11 1
    14     8     9 1
    15     9    19 1
    16    10    20 1
    17    10    21 1
    18    10    22 1
    19    11    12 1
    20    11    23 1
    21    11    24 1
    22    12    14 1
    23    12    13 1
@<TRIPOS>SUBSTRUCTURE
     1 PMV         1 TEMP              0 ****  ****    0 ROOT
