@<TRIPOS>MOLECULE
PMV
   24    23     1     0     0
SMALL
bcc


@<TRIPOS>ATOM
      1 OP2         0.3870   -0.4940   -0.1320 o         1 PMV     -0.945500
      2 P           1.8240   -0.0570    0.0200 p5        1 PMV      1.321900
      3 OP3         2.2880    0.1450    1.4410 o         1 PMV     -0.945500
      4 OP1         2.7970   -0.7660   -0.8890 o         1 PMV     -0.945500
      5 O5          1.8120    1.5620   -0.5850 os        1 PMV     -0.580200
      6 C5          1.6230    1.6990   -1.9420 c3        1 PMV      0.230400
      7 C4          2.5810    2.7580   -2.5080 c3        1 PMV     -0.094400
      8 C3          2.2800    3.2160   -3.9440 c3        1 PMV      0.174800
      9 O3A         1.1270    4.0570   -3.8810 oh        1 PMV     -0.636800
     10 C3A         1.9950    2.0280   -4.8560 c3        1 PMV     -0.111100
     11 C2          3.4760    4.0140   -4.4880 c3        1 PMV     -0.206400
     12 C1          3.3390    4.6040   -5.8910 c         1 PMV      0.903600
     13 O2          2.2030    4.9300   -6.3600 o         1 PMV     -0.884800
     14 O1          4.4030    4.8010   -6.5610 o         1 PMV     -0.884800
     15 H51         1.7920    0.7150   -2.4650 h1        1 PMV     -0.009800
     16 H52         0.5710    2.0530   -2.1640 h1        1 PMV     -0.009800
     17 H41         2.5490    3.6560   -1.8390 hc        1 PMV      0.027700
     18 H42         3.6220    2.3470   -2.4830 hc        1 PMV      0.027700
     19 HO3A        1.0260    4.4380   -4.7670 ho        1 PMV      0.416000
     20 H3A1        1.9050    2.3780   -5.9130 hc        1 PMV      0.030367
     21 H3A2        1.0420    1.5390   -4.5460 hc        1 PMV      0.030367
     22 H3A3        2.8230    1.2860   -4.7770 hc        1 PMV      0.030367
     23 H21         3.6650    4.8730   -3.7920 hc        1 PMV      0.030200
     24 H22         4.3790    3.3530   -4.4730 hc        1 PMV      0.030200
@<TRIPOS>BOND
     1    1    2 1   
     2    2    3 1   
     3    2    4 1   
     4    2    5 1   
     5    5    6 1   
     6    6    7 1   
     7    6   15 1   
     8    6   16 1   
     9    7    8 1   
    10    7   17 1   
    11    7   18 1   
    12    8    9 1   
    13    8   10 1   
    14    8   11 1   
    15    9   19 1   
    16   10   20 1   
    17   10   21 1   
    18   10   22 1   
    19   11   12 1   
    20   11   23 1   
    21   11   24 1   
    22   12   13 1   
    23   12   14 1   
@<TRIPOS>SUBSTRUCTURE
     1 PMV         1 TEMP              0 ****  ****    0 ROOT
