@<TRIPOS>MOLECULE
molecule
   35    35     1     0     0
SMALL
bcc


@<TRIPOS>ATOM
      1 C            0.0000     0.0000     0.0000 c          1 PMX       0.885600
      2 N            1.9960     1.1950    -0.6920 ns         1 PMX      -0.535900
      3 O           -0.6030     0.9070    -0.5230 o          1 PMX      -0.831800
      4 Cl           6.6710     2.3280     1.3590 cl         1 PMX      -0.119400
      5 CA           1.5070     0.0000     0.0000 c3         1 PMX       0.010700
      6 CB           2.0170     0.0000     1.4420 c3         1 PMX      -0.038100
      7 CG           3.5190    -0.1240     1.4440 ca         1 PMX      -0.058300
      8 OAA          1.8350     0.1990    -2.6690 o          1 PMX      -0.607100
      9 CAC          5.4850    -1.4910     1.4880 ca         1 PMX      -0.153000
     10 CAD          2.7440     2.3950    -4.0680 ce         1 PMX      -0.183200
     11 CAE          2.6170     2.3980    -2.7300 cf         1 PMX      -0.120200
     12 CAF          2.1240     1.1920    -2.0330 c          1 PMX       0.654300
     13 CAK          6.2780    -0.3540     1.4470 ca         1 PMX       0.085100
     14 OAL          7.6320    -0.4670     1.4480 oh         1 PMX      -0.515100
     15 OAM          3.5250     4.5930    -4.1280 o          1 PMX      -0.566000
     16 CAN          3.2360     3.5990    -4.7630 c          1 PMX       0.634300
     17 CAS          5.6840     0.9010     1.4090 ca         1 PMX       0.010400
     18 OAU          3.3650     3.5970    -6.1050 os         1 PMX      -0.426900
     19 CAV          3.8540     4.8160    -6.7230 c3         1 PMX       0.140700
     20 CD1          4.3070     1.0120     1.4080 ca         1 PMX      -0.117000
     21 CD2          4.1080    -1.3740     1.4850 ca         1 PMX      -0.110000
     22 OXT         -0.6710    -1.0030     0.5870 o          1 PMX      -0.831800
     23 HN           2.2040     2.0240    -0.1720 hn         1 PMX       0.299500
     24 HA           1.8680    -0.8850    -0.5100 h1         1 PMX       0.079700
     25 HB           1.7310     0.9250     1.9270 hc         1 PMX       0.068200
     26 HBA          1.5860    -0.8370     1.9780 hc         1 PMX       0.068200
     27 HAC          5.9460    -2.4710     1.5200 ha         1 PMX       0.135000
     28 HAD          2.4860     1.5090    -4.6350 ha         1 PMX       0.171000
     29 HAE          2.8750     3.2840    -2.1630 ha         1 PMX       0.141000
     30 HOAL         7.9330    -0.6220     2.3270 ho         1 PMX       0.410000
     31 HAV          4.8390     5.0460    -6.3370 h1         1 PMX       0.043033
     32 HAVA         3.9090     4.6790    -7.7960 h1         1 PMX       0.043033
     33 HAVB         3.1780     5.6320    -6.4960 h1         1 PMX       0.043033
     34 HD1          3.8430     1.9910     1.4150 ha         1 PMX       0.142000
     35 HD2          3.4900    -2.2630     1.5170 ha         1 PMX       0.148000
@<TRIPOS>BOND
     1     1     3 1
     2     1     5 1
     3     1    22 1
     4     2     5 1
     5     2    12 1
     6     4    17 1
     7     5     6 1
     8     6     7 1
     9     7    20 ar
    10     7    21 ar
    11     8    12 2
    12     9    13 ar
    13     9    21 ar
    14    10    11 2
    15    10    16 1
    16    11    12 1
    17    13    14 1
    18    13    17 ar
    19    15    16 2
    20    16    18 1
    21    17    20 ar
    22    18    19 1
    23     2    23 1
    24     5    24 1
    25     6    25 1
    26     6    26 1
    27     9    27 1
    28    10    28 1
    29    11    29 1
    30    14    30 1
    31    19    31 1
    32    19    32 1
    33    19    33 1
    34    20    34 1
    35    21    35 1
@<TRIPOS>SUBSTRUCTURE
     1 PMX         1 TEMP              0 ****  ****    0 ROOT
