@<TRIPOS>MOLECULE
PMX
   35    37     1     0     0
SMALL
bcc


@<TRIPOS>ATOM
      1 C            0.0000     0.0000     0.0000 c2         1 PMX       0.392000
      2 N            1.9960     1.1950    -0.6920 n7         1 PMX       0.045000
      3 O           -0.6030     0.9070    -0.5230 o          1 PMX      -0.613500
      4 Cl           6.6710     2.3280     1.3590 cl         1 PMX       0.044000
      5 CA           1.5070     0.0000     0.0000 c3         1 PMX      -0.123000
      6 CB           2.0170     0.0000     1.4420 c3         1 PMX      -0.058000
      7 CG           3.5190    -0.1240     1.4440 ca         1 PMX      -0.068000
      8 OAA          1.8350     0.1990    -2.6690 o          1 PMX      -0.414000
      9 CAC          5.4850    -1.4910     1.4880 ca         1 PMX      -0.139000
     10 CAD          2.7440     2.3950    -4.0680 c2         1 PMX       0.003000
     11 CAE          2.6170     2.3980    -2.7300 c2         1 PMX      -0.098000
     12 CAF          2.1240     1.1920    -2.0330 c3         1 PMX       0.324000
     13 CAK          6.2780    -0.3540     1.4470 ca         1 PMX       0.057000
     14 OAL          7.6320    -0.4670     1.4480 oh         1 PMX      -0.252000
     15 OAM          3.5250     4.5930    -4.1280 o          1 PMX      -0.458000
     16 CAN          3.2360     3.5990    -4.7630 c3         1 PMX       0.458000
     17 CAS          5.6840     0.9010     1.4090 ca         1 PMX      -0.142000
     18 OAU          3.3650     3.5970    -6.1050 os         1 PMX      -0.270000
     19 CAV          3.8540     4.8160    -6.7230 c3         1 PMX       0.086000
     20 CD1          4.3070     1.0120     1.4080 ca         1 PMX      -0.097000
     21 CD2          4.1080    -1.3740     1.4850 ca         1 PMX      -0.072000
     22 OXT         -0.6710    -1.0030     0.5870 o          1 PMX      -0.613500
     23 HN           2.2010     2.0250    -0.1720 hn         1 PMX       0.081000
     24 HA           1.8680    -0.8850    -0.5100 h1         1 PMX       0.095000
     25 HB           1.7310     0.9260     1.9260 hc         1 PMX       0.079000
     26 HBA          1.5860    -0.8370     1.9780 hc         1 PMX       0.079000
     27 HAC          5.9460    -2.4710     1.5200 ha         1 PMX       0.108000
     28 HAD          3.7850     2.6920    -4.1160 DU         1 PMX      -0.017000
     29 HAE          3.2190     1.5210    -2.5240 DU         1 PMX       0.043000
     30 HOAL         7.9300    -0.6800     0.5790 ho         1 PMX       0.197000
     31 HAV          4.8340     5.0520    -6.3280 h1         1 PMX       0.034667
     32 HAVA         3.1720     5.6290    -6.5070 h1         1 PMX       0.034667
     33 HAVB         3.9200     4.6750    -7.7950 h1         1 PMX       0.034667
     34 HD1          3.8430     1.9910     1.4150 ha         1 PMX       0.120000
     35 HD2          3.4900    -2.2630     1.5170 ha         1 PMX       0.120000
@<TRIPOS>BOND
     1     1     3 1   
     2     1     5 1   
     3     1    22 1   
     4     2     5 1   
     5     2    12 1   
     6     2    23 1   
     7     4    17 1   
     8     5     6 1   
     9     5    24 1   
    10     6     7 1   
    11     6    25 1   
    12     6    26 1   
    13     7    20 1   
    14     7    21 1   
    15     8    12 1   
    16     9    13 1   
    17     9    21 1   
    18     9    27 1   
    19    10    11 1   
    20    10    16 1   
    21    10    28 1   
    22    11    12 1   
    23    11    29 1   
    24    12    29 1   
    25    13    14 1   
    26    13    17 1   
    27    14    30 1   
    28    15    16 1   
    29    16    18 1   
    30    16    28 1   
    31    17    20 1   
    32    18    19 1   
    33    19    31 1   
    34    19    32 1   
    35    19    33 1   
    36    20    34 1   
    37    21    35 1   
@<TRIPOS>SUBSTRUCTURE
     1 PMX         1 TEMP              0 ****  ****    0 ROOT
