@<TRIPOS>MOLECULE
molecule
   45    47     1     0     0
SMALL
bcc


@<TRIPOS>ATOM
      1 S5           0.0000     0.0000     0.0000 ss         1 PMZ      -0.239800
      2 N1           1.8620    -0.0100     2.4310 na         1 PMZ      -0.200100
      3 C1           3.8720    -0.0060     1.1450 ca         1 PMZ      -0.120000
      4 C2           4.5410    -0.0030    -0.0860 ca         1 PMZ      -0.153600
      5 C3           3.8000     0.0050    -1.2750 ca         1 PMZ      -0.116000
      6 C4           2.4280     0.0060    -1.2270 ca         1 PMZ      -0.097000
      7 C5           1.7590     0.0000     0.0000 ca         1 PMZ       0.041900
      8 C6           2.4920     0.0000     1.1870 ca         1 PMZ       0.071700
      9 C7          -0.3550     0.5700     1.6230 ca         1 PMZ       0.007900
     10 C8          -1.6170     1.0980     1.8860 ca         1 PMZ      -0.077000
     11 C9          -1.9330     1.5590     3.1490 ca         1 PMZ      -0.154000
     12 C10         -0.9930     1.5000     4.1620 ca         1 PMZ      -0.092000
     13 C11          0.2610     0.9780     3.9110 ca         1 PMZ      -0.177000
     14 C12          0.5860     0.5110     2.6430 ca         1 PMZ       0.086700
     15 CA1          2.5760    -0.5890     3.5720 c3         1 PMZ       0.052300
     16 CB1          3.4000     0.4990     4.2630 c3         1 PMZ      -0.120400
     17 CG           4.1480    -0.1060     5.4530 c3         1 PMZ       0.133800
     18 ND           4.9390     0.9380     6.1160 n3         1 PMZ      -0.672600
     19 CE1          5.6270     0.2950     7.2440 c3         1 PMZ       0.121100
     20 CE2          5.9800     1.3470     5.1650 c3         1 PMZ       0.121100
     21 CA2          6.0070    -0.0050    -0.1300 c          1 PMZ       0.578700
     22 CB2          6.7210    -0.0010    -1.4570 c3         1 PMZ      -0.191100
     23 OB3          6.6440    -0.0110     0.9020 o          1 PMZ      -0.534100
     24 H1           4.4400    -0.0120     2.0680 ha         1 PMZ       0.161000
     25 H3           4.3090     0.0070    -2.2310 ha         1 PMZ       0.137000
     26 H4           1.8590     0.0120    -2.1480 ha         1 PMZ       0.144000
     27 H8          -2.3550     1.1460     1.0950 ha         1 PMZ       0.140000
     28 H9          -2.9160     1.9680     3.3460 ha         1 PMZ       0.135000
     29 H10         -1.2410     1.8620     5.1530 ha         1 PMZ       0.135000
     30 H11          0.9950     0.9330     4.7060 ha         1 PMZ       0.145000
     31 HA11         1.8620    -1.0010     4.2740 h1         1 PMZ       0.060200
     32 HA12         3.2360    -1.3750     3.2230 h1         1 PMZ       0.060200
     33 HB11         4.1140     0.9120     3.5600 hc         1 PMZ       0.064700
     34 HB12         2.7410     1.2840     4.6120 hc         1 PMZ       0.064700
     35 HG1          3.4340    -0.5190     6.1550 h1         1 PMZ       0.036700
     36 HG2          4.8070    -0.8920     5.1040 h1         1 PMZ       0.036700
     37 HE11         6.2350     1.0280     7.7610 h1         1 PMZ       0.037033
     38 HE12         6.2600    -0.5020     6.8730 h1         1 PMZ       0.037033
     39 HE13         4.8940    -0.1140     7.9280 h1         1 PMZ       0.037033
     40 HE21         5.5720     2.0740     4.4740 h1         1 PMZ       0.037033
     41 HE22         6.3270     0.4810     4.6150 h1         1 PMZ       0.037033
     42 HE23         6.8090     1.7880     5.7050 h1         1 PMZ       0.037033
     43 HB21         6.4440     0.8870    -2.0130 hc         1 PMZ       0.062367
     44 HB22         7.7910    -0.0040    -1.2910 hc         1 PMZ       0.062367
     45 HB23         6.4400    -0.8820    -2.0210 hc         1 PMZ       0.062367
@<TRIPOS>BOND
     1     1     7 1
     2     1     9 1
     3     2     8 1
     4     2    14 1
     5     2    15 1
     6     3     4 ar
     7     3     8 ar
     8     3    24 1
     9     4     5 ar
    10     4    21 1
    11     5     6 ar
    12     5    25 1
    13     6     7 ar
    14     6    26 1
    15     7     8 ar
    16     9    10 ar
    17     9    14 ar
    18    10    11 ar
    19    10    27 1
    20    11    12 ar
    21    11    28 1
    22    12    13 ar
    23    12    29 1
    24    13    14 ar
    25    13    30 1
    26    15    16 1
    27    15    31 1
    28    15    32 1
    29    16    17 1
    30    16    33 1
    31    16    34 1
    32    17    18 1
    33    17    35 1
    34    17    36 1
    35    18    19 1
    36    18    20 1
    37    19    37 1
    38    19    38 1
    39    19    39 1
    40    20    40 1
    41    20    41 1
    42    20    42 1
    43    21    22 1
    44    21    23 2
    45    22    43 1
    46    22    44 1
    47    22    45 1
@<TRIPOS>SUBSTRUCTURE
     1 PMZ         1 TEMP              0 ****  ****    0 ROOT
