@<TRIPOS>MOLECULE
molecule
   49    51     1     0     0
SMALL
bcc


@<TRIPOS>ATOM
      1 N1           0.0000     0.0000     0.0000 n3         1 PN0      -0.815500
      2 N3           2.2110     1.1920    -2.0340 ns         1 PN0      -0.479400
      3 C4          -0.4860    -1.2700     2.0330 c3         1 PN0       0.002700
      4 C5          -0.9740     1.0720    -2.3410 ca         1 PN0      -0.337500
      5 C6          -1.9620     0.2420    -2.8390 ca         1 PN0      -0.020500
      6 C7          -2.0900     0.0600    -4.2020 ca         1 PN0      -0.182000
      7 C8          -1.2260     0.7110    -5.0710 ca         1 PN0       0.141100
      8 C10         -0.1130     1.7220    -3.2040 ca         1 PN0      -0.020500
      9 C13         -4.2210     2.0360    -8.6880 ca         1 PN0       0.438200
     10 C15         -3.6400     2.2860    -6.0370 ca         1 PN0      -0.252800
     11 C17          1.5090     1.2740     2.1530 c3         1 PN0      -0.076600
     12 C1           1.9750     0.0000     1.4450 c3         1 PN0       0.041100
     13 C2           1.4650     0.0000     0.0000 c3         1 PN0       0.192500
     14 C3          -0.7460    -1.1420     0.5300 c3         1 PN0       0.231800
     15 S1           1.3020    -1.4540     2.3040 ss         1 PN0      -0.338200
     16 S2          -0.8190     1.3080    -0.6010 sy         1 PN0       1.405200
     17 C9          -0.2360     1.5440    -4.5690 ca         1 PN0      -0.182000
     18 O1          -1.3500     0.5330    -6.4130 os         1 PN0      -0.293200
     19 C11         -2.8560     1.4390    -6.8180 ca         1 PN0       0.147100
     20 C12         -3.1610     1.3200    -8.1720 ca         1 PN0      -0.252800
     21 N2          -4.9410     2.8270    -7.9140 nb         1 PN0      -0.691000
     22 C14         -4.6840     2.9680    -6.6280 ca         1 PN0       0.438200
     23 O2          -2.1330     1.2380    -0.0670 o          1 PN0      -0.614300
     24 O3           0.0330     2.4310    -0.4230 o          1 PN0      -0.614300
     25 C16          1.9670     1.2310    -0.7100 c          1 PN0       0.622100
     26 O4           2.6840     2.3480    -2.7020 oh         1 PN0      -0.357100
     27 O5           2.1510     2.2560    -0.0890 o          1 PN0      -0.491100
     28 C18          3.5030    -0.0600     1.4490 c3         1 PN0      -0.076600
     29 HN3          2.1140     0.3300    -2.5350 hn         1 PN0       0.329500
     30 H4          -1.0020    -2.1420     2.4180 h1         1 PN0       0.082700
     31 H4A         -0.8390    -0.3800     2.5390 h1         1 PN0       0.082700
     32 H6          -2.6360    -0.2660    -2.1590 ha         1 PN0       0.167000
     33 H7          -2.8640    -0.5900    -4.5920 ha         1 PN0       0.148000
     34 H10          0.6590     2.3720    -2.8110 ha         1 PN0       0.167000
     35 H15         -3.3730     2.4870    -5.0070 ha         1 PN0       0.160500
     36 H17          1.3620     1.0690     3.2070 hc         1 PN0       0.052867
     37 H17A         2.2600     2.0470     2.0380 hc         1 PN0       0.052867
     38 H17B         0.5770     1.6100     1.7170 hc         1 PN0       0.052867
     39 H2           1.8240    -0.8870    -0.5080 h1         1 PN0       0.066700
     40 H3          -1.8050    -0.9900     0.3600 h1         1 PN0       0.068200
     41 H3A         -0.4220    -2.0470     0.0300 h1         1 PN0       0.068200
     42 H9           0.4390     2.0530    -5.2460 ha         1 PN0       0.148000
     43 H12         -2.5740     0.6720    -8.8110 ha         1 PN0       0.160500
     44 H14         -5.2990     3.6280    -6.0280 h4         1 PN0       0.037100
     45 HO4          3.5470     2.1830    -3.0440 ho         1 PN0       0.395000
     46 H18          3.8340    -0.8580     0.7960 hc         1 PN0       0.052867
     47 H18A         3.9020     0.8840     1.0970 hc         1 PN0       0.052867
     48 H18B         3.8540    -0.2480     2.4560 hc         1 PN0       0.052867
     49 H13         -4.4650     1.9490    -9.7390 h4         1 PN0       0.037100
@<TRIPOS>BOND
     1     1    13 1
     2     1    14 1
     3     1    16 1
     4     2    25 1
     5     2    26 1
     6     3    14 1
     7     3    15 1
     8     4     5 ar
     9     4     8 ar
    10     4    16 1
    11     5     6 ar
    12     6     7 ar
    13     7    17 ar
    14     7    18 1
    15     8    17 ar
    16     9    20 ar
    17     9    21 ar
    18    10    19 ar
    19    10    22 ar
    20    11    12 1
    21    12    13 1
    22    12    15 1
    23    12    28 1
    24    13    25 1
    25    16    23 2
    26    16    24 2
    27    18    19 1
    28    19    20 ar
    29    21    22 ar
    30    25    27 2
    31     2    29 1
    32     3    30 1
    33     3    31 1
    34     5    32 1
    35     6    33 1
    36     8    34 1
    37     9    49 1
    38    10    35 1
    39    11    36 1
    40    11    37 1
    41    11    38 1
    42    13    39 1
    43    14    40 1
    44    14    41 1
    45    17    42 1
    46    20    43 1
    47    22    44 1
    48    26    45 1
    49    28    46 1
    50    28    47 1
    51    28    48 1
@<TRIPOS>SUBSTRUCTURE
     1 PN0         1 TEMP              0 ****  ****    0 ROOT
