@<TRIPOS>MOLECULE
PN0
   49    51     1     0     0
SMALL
bcc


@<TRIPOS>ATOM
      1 N1           0.0000     0.0000     0.0000 n3         1 PN0      -0.530500
      2 N3           2.2110     1.1920    -2.0340 ns         1 PN0      -0.083400
      3 C4          -0.4860    -1.2700     2.0330 c3         1 PN0       0.071700
      4 C5          -0.9740     1.0720    -2.3410 ca         1 PN0      -0.180500
      5 C6          -1.9620     0.2420    -2.8390 ca         1 PN0       0.001000
      6 C7          -2.0900     0.0600    -4.2020 ca         1 PN0      -0.161000
      7 C8          -1.2260     0.7110    -5.0710 ca         1 PN0       0.155100
      8 C10         -0.1130     1.7220    -3.2040 ca         1 PN0       0.001000
      9 C13         -4.2210     2.0360    -8.6880 ca         1 PN0       0.424200
     10 C15         -3.6400     2.2860    -6.0370 ca         1 PN0      -0.233800
     11 C17          1.5090     1.2740     2.1530 c3         1 PN0      -0.002100
     12 C1           1.9750     0.0000     1.4450 c3         1 PN0       0.055100
     13 C2           1.4650     0.0000     0.0000 c3         1 PN0       0.157500
     14 C3          -0.7460    -1.1420     0.5300 c3         1 PN0       0.229800
     15 S1           1.3020    -1.4540     2.3040 ss         1 PN0      -0.399200
     16 S2          -0.8190     1.3080    -0.6010 sy         1 PN0       1.033200
     17 C9          -0.2360     1.5440    -4.5690 ca         1 PN0      -0.161000
     18 O1          -1.3500     0.5330    -6.4130 os         1 PN0      -0.270200
     19 C11         -2.8560     1.4390    -6.8180 ca         1 PN0       0.148100
     20 C12         -3.1610     1.3200    -8.1720 ca         1 PN0      -0.233800
     21 N2          -4.9410     2.8270    -7.9140 nb         1 PN0      -0.586000
     22 C14         -4.6840     2.9680    -6.6280 ca         1 PN0       0.424200
     23 O2          -2.1330     1.2380    -0.0670 o          1 PN0      -0.565300
     24 O3           0.0330     2.4310    -0.4230 o          1 PN0      -0.565300
     25 C16          1.9670     1.2310    -0.7100 c          1 PN0       0.528100
     26 O4           2.6840     2.3480    -2.7020 oh         1 PN0      -0.431100
     27 O5           2.1510     2.2560    -0.0890 o          1 PN0      -0.522100
     28 C18          3.5030    -0.0600     1.4490 c3         1 PN0      -0.002100
     29 HN3          2.1140     0.3300    -2.5350 hn         1 PN0       0.168500
     30 H4          -1.0020    -2.1420     2.4180 h1         1 PN0       0.057200
     31 H4A         -0.8390    -0.3800     2.5390 h1         1 PN0       0.057200
     32 H6          -2.6360    -0.2660    -2.1590 ha         1 PN0       0.141500
     33 H7          -2.8640    -0.5900    -4.5920 ha         1 PN0       0.123000
     34 H10          0.6590     2.3720    -2.8110 ha         1 PN0       0.141500
     35 H15         -3.3730     2.4870    -5.0070 ha         1 PN0       0.131500
     36 H17          1.3620     1.0690     3.2070 hc         1 PN0       0.025700
     37 H17A         2.2600     2.0470     2.0380 hc         1 PN0       0.025700
     38 H17B         0.5770     1.6100     1.7170 hc         1 PN0       0.025700
     39 H2           1.8240    -0.8870    -0.5080 h1         1 PN0       0.036700
     40 H3          -1.8050    -0.9900     0.3600 h1         1 PN0       0.035700
     41 H3A         -0.4220    -2.0470     0.0300 h1         1 PN0       0.035700
     42 H9           0.4390     2.0530    -5.2460 ha         1 PN0       0.123000
     43 H12         -2.5740     0.6720    -8.8110 ha         1 PN0       0.131500
     44 H14         -5.2990     3.6280    -6.0280 h4         1 PN0      -0.013400
     45 HO4          3.5470     2.1830    -3.0440 ho         1 PN0       0.388000
     46 H18          3.8340    -0.8580     0.7960 hc         1 PN0       0.025700
     47 H18A         3.9020     0.8840     1.0970 hc         1 PN0       0.025700
     48 H18B         3.8540    -0.2480     2.4560 hc         1 PN0       0.025700
     49 H13         -4.4650     1.9490    -9.7390 h4         1 PN0      -0.013400
@<TRIPOS>BOND
     1     1    13 1   
     2     1    14 1   
     3     1    16 1   
     4     2    25 1   
     5     2    26 1   
     6     2    29 1   
     7     3    14 1   
     8     3    15 1   
     9     3    30 1   
    10     3    31 1   
    11     4     5 ar  
    12     4     8 ar  
    13     4    16 1   
    14     5     6 ar  
    15     5    32 1   
    16     6     7 ar  
    17     6    33 1   
    18     7    17 ar  
    19     7    18 1   
    20     8    17 ar  
    21     8    34 1   
    22     9    20 ar  
    23     9    21 ar  
    24     9    49 1   
    25    10    19 ar  
    26    10    22 ar  
    27    10    35 1   
    28    11    12 1   
    29    11    36 1   
    30    11    37 1   
    31    11    38 1   
    32    12    13 1   
    33    12    15 1   
    34    12    28 1   
    35    13    25 1   
    36    13    39 1   
    37    14    40 1   
    38    14    41 1   
    39    16    23 2   
    40    16    24 2   
    41    17    42 1   
    42    18    19 1   
    43    19    20 ar  
    44    20    43 1   
    45    21    22 ar  
    46    22    44 1   
    47    25    27 2   
    48    26    45 1   
    49    28    46 1   
    50    28    47 1   
    51    28    48 1   
@<TRIPOS>SUBSTRUCTURE
     1 PN0         1 TEMP              0 ****  ****    0 ROOT
