@<TRIPOS>MOLECULE
PN1
   44    42     1     0     0
SMALL
bcc


@<TRIPOS>ATOM
      1 C8         -0.4490   -0.5120    1.5900 c2        1 PN1     -0.172000
      2 C5          1.1980    0.5190   -0.0090 c3        1 PN1     -0.110000
      3 C6          4.8690    5.8040   -0.1860 c3        1 PN1     -0.310000
      4 N1          6.0690    2.1640    2.6520 n         1 PN1     -0.312000
      5 N3          3.6960    4.1780    1.1400 n3        1 PN1      0.176000
      6 C4          2.0100   -0.8010    0.0850 c3        1 PN1     -0.051000
      7 C3          5.7020    1.1000    1.8630 c2        1 PN1      0.281000
      8 C7         -0.0730    0.4600    0.7630 c2        1 PN1     -0.202000
      9 C9          2.5750    3.6270    1.7600 c1        1 PN1      0.085000
     10 C10         1.7780    2.5670    1.3470 c2        1 PN1     -0.309000
     11 C11         2.0570    1.6670    0.3510 c2        1 PN1      0.154000
     12 C12         3.6490    4.9720    0.0640 c2        1 PN1     -0.266000
     13 C13         4.9380    4.2170    1.7980 c2        1 PN1     -0.680000
     14 C14         5.2880    3.3140    2.8740 c2        1 PN1     -0.147000
     15 C15         4.7480    3.5670    4.0820 c1        1 PN1      0.325000
     16 N2          3.1510   -0.8060   -0.7890 n3        1 PN1     -0.383000
     17 O3          4.6450    1.0490    1.2090 o         1 PN1     -0.412000
     18 O4          4.3480    3.8740    5.1490 o         1 PN1     -0.071000
     19 S1          6.0110    5.2950    1.1570 s4        1 PN1      1.192000
     20 H8         -1.4230   -0.4880    2.1000 ha        1 PN1      0.127000
     21 H1          6.9300    2.1200    3.1490 hn        1 PN1      0.240000
     22 H4          1.3030   -1.6310   -0.2040 h1        1 PN1      0.090500
     23 H1C1        4.2900    7.4720    1.0920 hc        1 PN1      0.121667
     24 H1C2        3.7770    7.6140   -0.6440 hc        1 PN1      0.121667
     25 H1C3        5.5190    7.8900   -0.1900 hc        1 PN1      0.121667
     26 H7         -0.7440    1.3170    0.5720 ha        1 PN1      0.129000
     27 H9          0.1650   -1.3930    1.8210 ha        1 PN1      0.127000
     28 H10         0.8630    2.4400    1.9660 ha        1 PN1      0.195000
     29 H11         0.9220    0.6620   -1.1050 hc        1 PN1      0.156000
     30 H12         2.7640    5.0720   -0.5800 h4        1 PN1      0.221000
     31 H13         6.8510    4.5220    0.5230 hs        1 PN1     -0.124000
     32 H14         2.9910    1.7640   -0.2420 ha        1 PN1      0.165000
     33 H161        5.1200    3.5110   -1.6600 ha        1 PN1      0.021000
     34 H162        5.7610    3.5210   -1.9020 ha        1 PN1      0.021000
     35 H163        4.8640    5.7390   -2.3830 ha        1 PN1      0.107000
     36 H2N1        3.3170   -1.7120   -1.1740 hn        1 PN1      0.172000
     37 H2N2        3.9720   -0.4630   -0.3330 hn        1 PN1      0.172000
     38 C2          1.7950    6.9230   -3.4720 c1        1 PN1      0.430000
     39 O1          1.0780    7.3390   -4.3170 o         1 PN1     -0.215000
     40 O2          2.5180    6.5010   -2.6170 o         1 PN1     -0.215000
     41 C16         5.4960    5.6220   -1.4910 c1        1 PN1     -0.008000
     42 H121        6.4610    0.2800    1.8430 h5        1 PN1      0.145000
     43 H23         2.2920   -0.9470    1.1680 h1        1 PN1      0.090500
     44 C1          4.6050    7.2870    0.0360 c3        1 PN1     -0.202000
@<TRIPOS>BOND
     1    1    8 1
     2    1   20 1
     3    1   27 1
     4    2    6 1
     5    2    8 1
     6    2   11 1
     7    2   29 1
     8    3   12 1
     9    3   19 1
    10    3   41 1
    11    3   44 1
    12    4    7 1
    13    4   14 1
    14    4   21 1
    15    5    9 1
    16    5   12 1
    17    5   13 1
    18    6   16 1
    19    6   22 1
    20    6   43 1
    21    7   17 1
    22    7   42 1
    23    8   26 1
    24    9   10 1
    25   10   11 1
    26   10   28 1
    27   11   32 1
    28   12   30 1
    29   13   14 1
    30   13   19 1
    31   14   15 1
    32   15   18 1
    33   16   36 1
    34   16   37 1
    35   19   31 1
    36   23   44 1
    37   24   44 1
    38   25   44 1
    39   33   34 1
    40   35   41 1
    41   38   39 1
    42   38   40 1
@<TRIPOS>SUBSTRUCTURE
     1 PN1         1 TEMP              0 ****  ****    0 ROOT
