@<TRIPOS>MOLECULE
molecule
   53    52     1     0     0
SMALL
bcc


@<TRIPOS>ATOM
      1 CA           0.0000     0.0000     0.0000 c2         1 PN2      -0.371300
      2 N            1.3800     0.0000     0.0000 nz         1 PN2      -0.607400
      3 C           -0.6540     0.0000     1.1300 c1         1 PN2       0.624600
      4 O           -1.2770     0.0000     2.1650 o          1 PN2      -0.274500
      5 CB          -0.7640     0.0000    -1.3240 c3         1 PN2       0.300600
      6 O5          -0.8790    -1.3160    -1.7990 os         1 PN2      -0.576200
      7 P6          -2.1910    -1.7080    -2.7180 p5         1 PN2       1.354800
      8 O7          -3.2750    -2.2660    -1.8340 o          1 PN2      -0.799000
      9 O8          -2.7000    -0.4750    -3.4200 o          1 PN2      -0.799000
     10 O9          -1.7600    -2.8380    -3.8360 os         1 PN2      -0.579200
     11 C11         -2.1570    -4.5140    -5.4910 c3         1 PN2      -0.067000
     12 C12         -2.7660    -3.4320    -4.6050 c3         1 PN2       0.226400
     13 C13         -1.0190    -5.1780    -4.7600 c3         1 PN2      -0.080600
     14 C14         -3.2190    -5.5520    -5.8280 c3         1 PN2      -0.080600
     15 C10         -1.6370    -3.8850    -6.7750 c3         1 PN2       0.094100
     16 O10         -0.8480    -2.7750    -6.4630 oh         1 PN2      -0.577800
     17 C9          -0.7940    -4.9130    -7.5410 c          1 PN2       0.672100
     18 O39         -1.1360    -6.0450    -7.5830 o          1 PN2      -0.548100
     19 N8           0.4380    -4.4980    -8.1990 ns         1 PN2      -0.668900
     20 C7           0.7680    -5.0190    -9.5130 c3         1 PN2       0.121000
     21 C42          2.2870    -5.1350    -9.6490 c3         1 PN2      -0.170400
     22 C43          2.6980    -4.8130   -11.0940 c          1 PN2       0.683100
     23 O44          2.1200    -3.9750   -11.7020 o          1 PN2      -0.546100
     24 N4           3.8330    -5.5030   -11.7020 ns         1 PN2      -0.667900
     25 C3           4.7870    -4.7600   -12.5100 c3         1 PN2       0.138000
     26 C47          5.3020    -5.6510   -13.6380 c3         1 PN2       0.026700
     27 S1           6.6550    -6.6920   -13.0170 sh         1 PN2      -0.444900
     28 HN1          1.7140    -0.8520     0.4060 hn         1 PN2       0.448133
     29 HN2          1.7140     0.0750    -0.9410 hn         1 PN2       0.448133
     30 HCB1        -1.7530     0.4160    -1.1710 h1         1 PN2       0.068200
     31 HCB2        -0.2290     0.6000    -2.0500 h1         1 PN2       0.068200
     32 H121        -3.2380    -2.6800    -5.2260 h1         1 PN2       0.033700
     33 H122        -3.5060    -3.8760    -3.9500 h1         1 PN2       0.033700
     34 H131        -0.6730    -6.0330    -5.3290 hc         1 PN2       0.040700
     35 H132        -1.3580    -5.5070    -3.7850 hc         1 PN2       0.040700
     36 H133        -0.2060    -4.4720    -4.6400 hc         1 PN2       0.040700
     37 H141        -3.9210    -5.6310    -5.0070 hc         1 PN2       0.040700
     38 H142        -3.7470    -5.2510    -6.7250 hc         1 PN2       0.040700
     39 H143        -2.7460    -6.5120    -5.9930 hc         1 PN2       0.040700
     40 H10         -2.4730    -3.5740    -7.3890 h1         1 PN2       0.055700
     41 H10O        -1.0550    -2.0680    -7.0520 ho         1 PN2       0.404000
     42 HN8          1.0360    -3.8250    -7.7630 hn         1 PN2       0.322500
     43 H71          0.3190    -5.9970    -9.6370 h1         1 PN2       0.055200
     44 H72          0.3870    -4.3480   -10.2740 h1         1 PN2       0.055200
     45 H421         2.7640    -4.4350    -8.9740 hc         1 PN2       0.068700
     46 H422         2.5960    -6.1440    -9.4020 hc         1 PN2       0.068700
     47 HN4          3.9800    -6.4760   -11.5220 hn         1 PN2       0.324500
     48 H31          4.3010    -3.8880   -12.9330 h1         1 PN2       0.057200
     49 H2           5.6180    -4.4450   -11.8910 h1         1 PN2       0.057200
     50 H471         4.4970    -6.2820   -13.9960 h1         1 PN2       0.067700
     51 H472         5.6660    -5.0330   -14.4500 h1         1 PN2       0.067700
     52 HS           7.3980    -7.1060   -14.0360 hs         1 PN2       0.221800
     53 HN3          1.7140     0.7770     0.5350 hn         1 PN2       0.448133
@<TRIPOS>BOND
     1     1     2 1
     2     1     3 2
     3     1     5 1
     4     2    28 1
     5     2    29 1
     6     3     4 2
     7     5     6 1
     8     5    30 1
     9     5    31 1
    10     6     7 1
    11     7     8 1
    12     7     9 1
    13     7    10 1
    14    10    12 1
    15    11    12 1
    16    11    13 1
    17    11    14 1
    18    11    15 1
    19    12    32 1
    20    12    33 1
    21    13    34 1
    22    13    35 1
    23    13    36 1
    24    14    37 1
    25    14    38 1
    26    14    39 1
    27    15    16 1
    28    15    17 1
    29    15    40 1
    30    16    41 1
    31    17    18 2
    32    17    19 1
    33    19    20 1
    34    19    42 1
    35    20    21 1
    36    20    43 1
    37    20    44 1
    38    21    22 1
    39    21    45 1
    40    21    46 1
    41    22    23 2
    42    22    24 1
    43    24    25 1
    44    24    47 1
    45    25    26 1
    46    25    48 1
    47    25    49 1
    48    26    27 1
    49    26    50 1
    50    26    51 1
    51    27    52 1
    52    53     2 1
@<TRIPOS>SUBSTRUCTURE
     1 PN2         1 TEMP              0 ****  ****    0 ROOT
