@<TRIPOS>MOLECULE
PN2
   53    52     1     0     0
SMALL
bcc


@<TRIPOS>ATOM
      1 CA           0.0000     0.0000     0.0000 c2         1 PN2      -0.702300
      2 N            1.3800     0.0000     0.0000 nz         1 PN2       0.395600
      3 C           -0.6540     0.0000     1.1300 c1         1 PN2       0.762600
      4 O           -1.2400     0.0000     2.1860 o          1 PN2      -0.321500
      5 CB          -0.7640     0.0000    -1.3230 c3         1 PN2       0.446600
      6 O5          -2.1190    -0.2450    -1.0790 os         1 PN2      -0.506200
      7 P6          -3.0770    -0.6930    -2.3440 p5         1 PN2       0.938800
      8 O7          -2.7810    -2.1260    -2.7170 o          1 PN2      -0.637000
      9 O8          -2.7980     0.2030    -3.5270 o          1 PN2      -0.637000
     10 O9          -4.6610    -0.5540    -1.9100 os         1 PN2      -0.491200
     11 C11         -6.9740    -0.8040    -2.4650 c3         1 PN2      -0.095000
     12 C12         -5.5860    -1.4430    -2.4680 c3         1 PN2       0.307400
     13 C13         -7.7240    -1.2080    -3.7340 c3         1 PN2       0.009900
     14 C14         -6.8340     0.7170    -2.4190 c3         1 PN2       0.009900
     15 C10         -7.7510    -1.2800    -1.2400 c3         1 PN2       0.139100
     16 O10         -8.8100    -0.4000    -0.9880 oh         1 PN2      -0.561800
     17 C9          -8.3050    -2.6790    -1.5010 c          1 PN2       0.596100
     18 O39         -8.5080    -3.0380    -2.6120 o          1 PN2      -0.561100
     19 N8          -8.6080    -3.5590    -0.3870 ns         1 PN2      -0.325900
     20 C7          -9.5290    -4.6680    -0.5670 c3         1 PN2       0.075000
     21 C42         -9.5020    -5.5600     0.6730 c3         1 PN2      -0.107400
     22 C43        -10.8550    -6.2490     0.8350 c          1 PN2       0.614100
     23 O44        -11.6270    -6.2560    -0.0640 o          1 PN2      -0.578100
     24 N4         -11.1830    -6.9220     2.0780 ns         1 PN2      -0.302900
     25 C3         -12.4770    -7.5590     2.2390 c3         1 PN2       0.089000
     26 C47        -12.5940    -8.1250     3.6530 c3         1 PN2       0.088700
     27 S1         -14.2920    -8.7090     3.9330 sh         1 PN2      -0.389900
     28 HN1          1.7140     0.0480    -0.9420 hn         1 PN2       0.177800
     29 HN2          1.7140    -0.8400     0.4300 hn         1 PN2       0.177800
     30 HCB1        -0.6520     0.9640    -1.8040 h1         1 PN2      -0.001300
     31 HCB2        -0.3670    -0.7740    -1.9680 h1         1 PN2      -0.001300
     32 H121        -5.2970    -1.6740    -3.4860 h1         1 PN2      -0.010800
     33 H122        -5.6070    -2.3550    -1.8840 h1         1 PN2      -0.010800
     34 H131        -8.7900    -1.2000    -3.5410 hc         1 PN2       0.011533
     35 H132        -7.4180    -2.2040    -4.0320 hc         1 PN2       0.011533
     36 H133        -7.4950    -0.5070    -4.5270 hc         1 PN2       0.011533
     37 H141        -6.1510     1.0400    -3.1960 hc         1 PN2       0.011533
     38 H142        -7.8030     1.1740    -2.5780 hc         1 PN2       0.011533
     39 H143        -6.4480     1.0150    -1.4520 hc         1 PN2       0.011533
     40 H10         -7.0910    -1.3070    -0.3820 h1         1 PN2       0.004700
     41 H10O        -8.8690    -0.2370    -0.0610 ho         1 PN2       0.379000
     42 HN8         -8.1840    -3.4010     0.5060 hn         1 PN2       0.172500
     43 H71         -9.2330    -5.2470    -1.4340 h1         1 PN2       0.032700
     44 H72        -10.5310    -4.2850    -0.7140 h1         1 PN2       0.032700
     45 H421        -9.2980    -4.9550     1.5490 hc         1 PN2       0.028200
     46 H422        -8.7260    -6.3080     0.5640 hc         1 PN2       0.028200
     47 HN4        -10.5130    -6.9540     2.8210 hn         1 PN2       0.176500
     48 H31        -13.2620    -6.8300     2.0760 h1         1 PN2       0.032700
     49 H2         -12.5760    -8.3630     1.5190 h1         1 PN2       0.032700
     50 H471       -11.9040    -8.9510     3.7690 h1         1 PN2       0.029700
     51 H472       -12.3550    -7.3510     4.3720 h1         1 PN2       0.029700
     52 HS         -14.3520    -9.3590     5.0890 hs         1 PN2       0.185800
     53 HN3          1.7140     0.7920     0.5130 hn         1 PN2       0.177800
@<TRIPOS>BOND
     1     1     2 1   
     2     1     3 2   
     3     1     5 1   
     4     2    28 1   
     5     2    29 1   
     6     2    53 1   
     7     3     4 2   
     8     5     6 1   
     9     5    30 1   
    10     5    31 1   
    11     6     7 1   
    12     7     8 1   
    13     7     9 1   
    14     7    10 1   
    15    10    12 1   
    16    11    12 1   
    17    11    13 1   
    18    11    14 1   
    19    11    15 1   
    20    12    32 1   
    21    12    33 1   
    22    13    34 1   
    23    13    35 1   
    24    13    36 1   
    25    14    37 1   
    26    14    38 1   
    27    14    39 1   
    28    15    16 1   
    29    15    17 1   
    30    15    40 1   
    31    16    41 1   
    32    17    18 2   
    33    17    19 1   
    34    19    20 1   
    35    19    42 1   
    36    20    21 1   
    37    20    43 1   
    38    20    44 1   
    39    21    22 1   
    40    21    45 1   
    41    21    46 1   
    42    22    23 2   
    43    22    24 1   
    44    24    25 1   
    45    24    47 1   
    46    25    26 1   
    47    25    48 1   
    48    25    49 1   
    49    26    27 1   
    50    26    50 1   
    51    26    51 1   
    52    27    52 1   
@<TRIPOS>SUBSTRUCTURE
     1 PN2         1 TEMP              0 ****  ****    0 ROOT
