@<TRIPOS>MOLECULE
molecule
   43    43     1     0     0
SMALL
bcc


@<TRIPOS>ATOM
      1 C1           0.0000     0.0000     0.0000 c          1 PN3       0.692900
      2 O2           1.2130     0.0000     0.0000 o          1 PN3      -0.583100
      3 N3          -0.6730     0.0000     1.1680 n          1 PN3      -0.382300
      4 O4           0.0360     0.0010     2.3930 oh         1 PN3      -0.367100
      5 C5          -2.1380    -0.0000     1.1690 c3         1 PN3       0.090000
      6 C6          -2.6480    -1.3940     0.7980 c3         1 PN3       0.118700
      7 C7          -4.1730    -1.4290     0.9190 c3         1 PN3      -0.048100
      8 C8          -4.6850    -2.7610     0.4360 ca         1 PN3      -0.087300
      9 C9          -5.0140    -2.9340    -0.8960 ca         1 PN3      -0.120000
     10 C10         -5.4840    -4.1560    -1.3390 ca         1 PN3      -0.122000
     11 C11         -5.6250    -5.2050    -0.4510 ca         1 PN3      -0.125000
     12 C12         -5.2960    -5.0330     0.8810 ca         1 PN3      -0.122000
     13 C13         -4.8210    -3.8120     1.3230 ca         1 PN3      -0.120000
     14 N14         -2.0630    -2.3860     1.7020 ns         1 PN3      -0.565900
     15 C15         -0.8460    -2.9020     1.4400 c          1 PN3       0.770100
     16 O16         -0.2340    -2.5450     0.4540 o          1 PN3      -0.617000
     17 O17         -0.3080    -3.8140     2.2730 os         1 PN3      -0.436900
     18 C18          1.0060    -4.3270     1.9280 c3         1 PN3       0.177800
     19 C19          0.9450    -5.0060     0.5590 c3         1 PN3      -0.105100
     20 C20          2.0080    -3.1720     1.8810 c3         1 PN3      -0.105100
     21 C21          1.4480    -5.3440     2.9830 c3         1 PN3      -0.105100
     22 H1          -0.5410     0.0500    -0.9370 h5         1 PN3       0.037200
     23 HO4          0.1890     0.8900     2.6680 ho         1 PN3       0.391000
     24 H5          -2.4980     0.2650     2.1560 h1         1 PN3       0.056200
     25 H5A         -2.5000     0.7210     0.4470 h1         1 PN3       0.056200
     26 H6          -2.3620    -1.6220    -0.2220 h1         1 PN3       0.085700
     27 H7          -4.4550    -1.2880     1.9550 hc         1 PN3       0.057200
     28 H7A         -4.6020    -0.6370     0.3170 hc         1 PN3       0.057200
     29 H9          -4.9030    -2.1110    -1.5920 ha         1 PN3       0.126500
     30 H10         -5.7420    -4.2910    -2.3830 ha         1 PN3       0.132000
     31 H11         -5.9960    -6.1620    -0.7980 ha         1 PN3       0.131000
     32 H12         -5.4050    -5.8560     1.5770 ha         1 PN3       0.132000
     33 H13         -4.5630    -3.6780     2.3660 ha         1 PN3       0.126500
     34 HN14        -2.5620    -2.6730     2.5210 hn         1 PN3       0.322500
     35 H19          1.0390    -4.2580    -0.2190 hc         1 PN3       0.050144
     36 H19A         1.7540    -5.7200     0.4730 hc         1 PN3       0.050144
     37 H19B        -0.0030    -5.5200     0.4530 hc         1 PN3       0.050144
     38 H20          3.0060    -3.5510     2.0670 hc         1 PN3       0.050144
     39 H20A         1.7530    -2.4410     2.6390 hc         1 PN3       0.050144
     40 H20B         1.9760    -2.7060     0.9040 hc         1 PN3       0.050144
     41 H21          2.4320    -5.7200     2.7310 hc         1 PN3       0.050144
     42 H21A         0.7430    -6.1660     3.0100 hc         1 PN3       0.050144
     43 H21B         1.4830    -4.8650     3.9540 hc         1 PN3       0.050144
@<TRIPOS>BOND
     1     3     1 1
     2     1     2 2
     3     1    22 1
     4     5     3 1
     5     3     4 1
     6     4    23 1
     7     6     5 1
     8     5    24 1
     9     5    25 1
    10     7     6 1
    11     6    14 1
    12     6    26 1
    13     8     7 1
    14     7    27 1
    15     7    28 1
    16     9     8 ar
    17     8    13 ar
    18    10     9 ar
    19     9    29 1
    20    10    11 ar
    21    10    30 1
    22    11    12 ar
    23    11    31 1
    24    12    13 ar
    25    12    32 1
    26    13    33 1
    27    14    15 1
    28    14    34 1
    29    15    16 2
    30    15    17 1
    31    17    18 1
    32    21    18 1
    33    18    20 1
    34    18    19 1
    35    19    35 1
    36    19    36 1
    37    19    37 1
    38    20    38 1
    39    20    39 1
    40    20    40 1
    41    21    41 1
    42    21    42 1
    43    21    43 1
@<TRIPOS>SUBSTRUCTURE
     1 PN3         1 TEMP              0 ****  ****    0 ROOT
