@<TRIPOS>MOLECULE
PN5
   54    53     1     0     0
SMALL
bcc


@<TRIPOS>ATOM
      1 CP2          0.0000     0.0000     0.0000 c3         1 PN5       0.082700
      2 CP3          1.5290     0.0000     0.0000 c3         1 PN5       0.073000
      3 NP4          2.0180     0.0000     1.3810 ns         1 PN5      -0.207900
      4 CP5          3.3440     0.0010     1.6270 c          1 PN5       0.576100
      5 OP5          4.1310     0.0020     0.7050 o          1 PN5      -0.628100
      6 CP6          3.8460     0.0010     3.0480 c3         1 PN5      -0.110400
      7 CP7          5.3760     0.0010     3.0480 c3         1 PN5       0.060000
      8 NP8          5.8640     0.0010     4.4290 ns         1 PN5      -0.200900
      9 CP9          7.1900     0.0010     4.6750 c          1 PN5       0.557100
     10 OP9          7.9770    -0.0910     3.7570 o          1 PN5      -0.640100
     11 CPA          7.6930     0.1180     6.0910 c3         1 PN5       0.128100
     12 OPA          6.6050    -0.0610     6.9990 oh         1 PN5      -0.594800
     13 CPB          8.3100     1.5020     6.3000 c3         1 PN5      -0.074000
     14 CPE          9.5640     1.6370     5.4350 c3         1 PN5      -0.004600
     15 CPD          7.2980     2.5780     5.9030 c3         1 PN5      -0.004600
     16 CPC          8.6870     1.6750     7.7730 c3         1 PN5       0.226400
     17 OA6          9.2720     2.9880     7.9720 os         1 PN5      -0.404900
     18 CT1          9.6600     3.3000     9.2190 c          1 PN5       0.701100
     19 OT1          9.5130     2.5030    10.1150 o          1 PN5      -0.586000
     20 CT2         10.2760     4.6470     9.5020 c3         1 PN5      -0.116000
     21 CT5          9.2810     5.7500     9.1370 c3         1 PN5       0.012567
     22 CT3         10.6240     4.7460    10.9880 c3         1 PN5       0.012567
     23 CT4         11.5480     4.8100     8.6680 c3         1 PN5       0.012567
     24 SP1         -0.6050    -0.0000    -1.7100 sh         1 PN5      -0.382900
     25 HP21        -0.3610     0.8850     0.5110 h1         1 PN5       0.031200
     26 HP22        -0.3610    -0.8850     0.5110 h1         1 PN5       0.031200
     27 HP31         1.8900    -0.8840    -0.5110 h1         1 PN5       0.042700
     28 HP32         1.8900     0.8840    -0.5110 h1         1 PN5       0.042700
     29 HP1         -1.9120    -0.2330    -1.7180 hs         1 PN5       0.188800
     30 HP4          1.3680     0.0000     2.1420 hn         1 PN5       0.171500
     31 HP61         3.4850    -0.8840     3.5580 hc         1 PN5       0.028200
     32 HP62         3.4840     0.8850     3.5580 hc         1 PN5       0.028200
     33 HP71         5.7380    -0.8830     2.5370 h1         1 PN5       0.043200
     34 HP72         5.7370     0.8860     2.5370 h1         1 PN5       0.043200
     35 HP8          5.2150    -0.0570     5.1890 hn         1 PN5       0.187500
     36 HPA          8.4430    -0.6430     6.2710 h1         1 PN5       0.030700
     37 HA           6.6520    -0.9220     7.3810 ho         1 PN5       0.398000
     38 HPD1         6.3860     2.4440     6.4720 hc         1 PN5       0.017033
     39 HPD2         7.7120     3.5570     6.1100 hc         1 PN5       0.017033
     40 HPD3         7.0790     2.4940     4.8450 hc         1 PN5       0.017033
     41 HPE1         9.2760     1.7940     4.4030 hc         1 PN5       0.017033
     42 HPE2        10.1550     0.7330     5.5110 hc         1 PN5       0.017033
     43 HPE3        10.1510     2.4810     5.7780 hc         1 PN5       0.017033
     44 HPC1         9.4040     0.9130     8.0540 h1         1 PN5       0.018200
     45 HPC2         7.7990     1.5780     8.3870 h1         1 PN5       0.018200
     46 HT31        11.3160     3.9550    11.2510 hc         1 PN5       0.011922
     47 HT32        11.0810     5.7070    11.1890 hc         1 PN5       0.011922
     48 HT33         9.7210     4.6450    11.5780 hc         1 PN5       0.011922
     49 HT41        12.1730     3.9330     8.7890 hc         1 PN5       0.011922
     50 HT42        12.0880     5.6870     9.0020 hc         1 PN5       0.011922
     51 HT43        11.2830     4.9240     7.6240 hc         1 PN5       0.011922
     52 HT51         8.3010     5.4930     9.5190 hc         1 PN5       0.011922
     53 HT52         9.6050     6.6870     9.5730 hc         1 PN5       0.011922
     54 HT53         9.2330     5.8500     8.0590 hc         1 PN5       0.011922
@<TRIPOS>BOND
     1     1     2 1   
     2     1    24 1   
     3     1    25 1   
     4     1    26 1   
     5     2     3 1   
     6     2    27 1   
     7     2    28 1   
     8     3     4 1   
     9     3    30 1   
    10     4     5 2   
    11     4     6 1   
    12     6     7 1   
    13     6    31 1   
    14     6    32 1   
    15     7     8 1   
    16     7    33 1   
    17     7    34 1   
    18     8     9 1   
    19     8    35 1   
    20     9    10 2   
    21     9    11 1   
    22    11    12 1   
    23    11    13 1   
    24    11    36 1   
    25    12    37 1   
    26    13    14 1   
    27    13    15 1   
    28    13    16 1   
    29    14    41 1   
    30    14    42 1   
    31    14    43 1   
    32    15    38 1   
    33    15    39 1   
    34    15    40 1   
    35    16    17 1   
    36    16    44 1   
    37    16    45 1   
    38    17    18 1   
    39    18    19 2   
    40    18    20 1   
    41    20    21 1   
    42    20    22 1   
    43    20    23 1   
    44    21    52 1   
    45    21    53 1   
    46    21    54 1   
    47    22    46 1   
    48    22    47 1   
    49    22    48 1   
    50    23    49 1   
    51    23    50 1   
    52    23    51 1   
    53    24    29 1   
@<TRIPOS>SUBSTRUCTURE
     1 PN5         1 TEMP              0 ****  ****    0 ROOT
