@<TRIPOS>MOLECULE
PN6
   45    47     1     0     0
SMALL
bcc


@<TRIPOS>ATOM
      1 C6           0.0000     0.0000     0.0000 ce         1 PN6      -0.162800
      2 C2           1.4670     0.0000     0.0000 cc         1 PN6       0.331100
      3 C4           3.5150    -0.0030    -0.7100 cd         1 PN6       0.213400
      4 C23          3.0600     0.0010     3.4550 c3         1 PN6      -0.005100
      5 C24          0.9930    -1.2480     2.8190 c3         1 PN6      -0.005100
      6 C25          0.9930     1.2500     2.8180 c3         1 PN6      -0.005100
      7 C1           2.2760     0.0000     1.1030 cd         1 PN6      -0.384900
      8 N5           3.5600    -0.0010     0.6470 na         1 PN6       0.265100
      9 N3           2.2700    -0.0070    -1.0950 nc         1 PN6      -0.615000
     10 C7          -0.6780     0.0860    -1.1720 cd         1 PN6      -0.196600
     11 C8          -2.1370     0.2420    -1.1710 c          1 PN6       0.623700
     12 O20         -2.7770     0.0330    -0.1570 o          1 PN6      -0.669500
     13 N9          -2.7660     0.6210    -2.3040 ns         1 PN6      -0.059100
     14 N12          0.0100     0.0300    -2.3910 ns         1 PN6      -0.048100
     15 C11         -0.6220     0.3990    -3.5260 c          1 PN6       0.620700
     16 O21         -0.0380     0.3580    -4.5930 o          1 PN6      -0.665500
     17 C10         -2.0180     0.8600    -3.4590 cc         1 PN6      -0.201600
     18 C13         -2.5740     1.5060    -4.5110 cf         1 PN6      -0.065200
     19 C14         -3.9060     2.1130    -4.3800 ca         1 PN6      -0.061800
     20 C15         -4.3570     2.5570    -3.1310 ca         1 PN6      -0.111500
     21 C16         -5.6070     3.1260    -3.0170 ca         1 PN6      -0.090500
     22 C17         -6.4170     3.2580    -4.1320 ca         1 PN6      -0.100000
     23 C18         -5.9790     2.8210    -5.3700 ca         1 PN6      -0.090500
     24 C19         -4.7280     2.2560    -5.5030 ca         1 PN6      -0.111500
     25 H1          -0.5380     0.0460     0.9390 ha         1 PN6       0.145000
     26 H2           4.3760    -0.0060    -1.3670 h5         1 PN6       0.027100
     27 H3           3.6550     0.8850     3.2600 hc         1 PN6       0.012256
     28 H4           2.7280     0.0090     4.4860 hc         1 PN6       0.012256
     29 H5           3.6600    -0.8840     3.2760 hc         1 PN6       0.012256
     30 H6           1.3330    -2.0590     2.1860 hc         1 PN6       0.012256
     31 H7          -0.0430    -1.0250     2.5940 hc         1 PN6       0.012256
     32 H8           1.0820    -1.5400     3.8580 hc         1 PN6       0.012256
     33 H9           1.1360     1.5620     3.8450 hc         1 PN6       0.012256
     34 H10         -0.0550     1.0320     2.6490 hc         1 PN6       0.012256
     35 H11          1.3090     2.0430     2.1510 hc         1 PN6       0.012256
     36 H12          4.3870    -0.0000     1.2110 hn         1 PN6       0.129700
     37 H14          0.9610    -0.2810    -2.4200 hn         1 PN6       0.242500
     38 H15         -1.9880     1.6870    -5.4040 ha         1 PN6       0.141000
     39 H17         -3.7250     2.4540    -2.2570 ha         1 PN6       0.117000
     40 H18         -5.9570     3.4700    -2.0510 ha         1 PN6       0.104500
     41 H19         -7.3990     3.7040    -4.0350 ha         1 PN6       0.103000
     42 H20         -6.6170     2.9310    -6.2380 ha         1 PN6       0.104500
     43 H21         -4.3870     1.9150    -6.4730 ha         1 PN6       0.117000
     44 H13         -3.7440     0.8290    -2.2800 hn         1 PN6       0.216500
     45 C22          1.8320     0.0000     2.5440 c3         1 PN6       0.036300
@<TRIPOS>BOND
     1     1     2 1   
     2     1    10 2   
     3     1    25 1   
     4     2     7 2   
     5     2     9 1   
     6     3     8 1   
     7     3     9 2   
     8     3    26 1   
     9     4    27 1   
    10     4    28 1   
    11     4    29 1   
    12     4    45 1   
    13     5    30 1   
    14     5    31 1   
    15     5    32 1   
    16     5    45 1   
    17     6    33 1   
    18     6    34 1   
    19     6    35 1   
    20     6    45 1   
    21     7     8 1   
    22     7    45 1   
    23     8    36 1   
    24    10    11 1   
    25    10    14 1   
    26    11    12 2   
    27    11    13 1   
    28    13    17 1   
    29    13    44 1   
    30    14    15 1   
    31    14    37 1   
    32    15    16 2   
    33    15    17 1   
    34    17    18 2   
    35    18    19 1   
    36    18    38 1   
    37    19    20 ar  
    38    19    24 ar  
    39    20    21 ar  
    40    20    39 1   
    41    21    22 ar  
    42    21    40 1   
    43    22    23 ar  
    44    22    41 1   
    45    23    24 ar  
    46    23    42 1   
    47    24    43 1   
@<TRIPOS>SUBSTRUCTURE
     1 PN6         1 TEMP              0 ****  ****    0 ROOT
