@<TRIPOS>MOLECULE
molecule
   45    47     1     0     0
SMALL
bcc


@<TRIPOS>ATOM
      1 C6           0.0000     0.0000     0.0000 ce         1 PN6      -0.187800
      2 C2           1.4670     0.0000     0.0000 cc         1 PN6       0.354100
      3 C4           3.5150    -0.0030    -0.7100 cd         1 PN6       0.408400
      4 C23          3.0600     0.0010     3.4550 c3         1 PN6      -0.087100
      5 C24          0.9930    -1.2480     2.8190 c3         1 PN6      -0.087100
      6 C25          0.9930     1.2500     2.8180 c3         1 PN6      -0.087100
      7 C1           2.2760     0.0000     1.1030 cd         1 PN6      -0.182900
      8 N5           3.5600    -0.0010     0.6470 na         1 PN6      -0.289900
      9 N3           2.2700    -0.0070    -1.0950 nc         1 PN6      -0.714000
     10 C7          -0.6780     0.0860    -1.1720 cd         1 PN6      -0.043600
     11 C8          -2.1370     0.2420    -1.1710 c          1 PN6       0.706700
     12 O20         -2.7770     0.0330    -0.1570 o          1 PN6      -0.627500
     13 N9          -2.7660     0.6210    -2.3040 ns         1 PN6      -0.478100
     14 N12          0.0100     0.0300    -2.3910 ns         1 PN6      -0.460100
     15 C11         -0.6220     0.3990    -3.5260 c          1 PN6       0.707700
     16 O21         -0.0380     0.3580    -4.5930 o          1 PN6      -0.621500
     17 C10         -2.0180     0.8600    -3.4590 cd         1 PN6      -0.046600
     18 C13         -2.5740     1.5060    -4.5110 ce         1 PN6      -0.106200
     19 C14         -3.9060     2.1130    -4.3800 ca         1 PN6      -0.061800
     20 C15         -4.3570     2.5570    -3.1310 ca         1 PN6      -0.131500
     21 C16         -5.6070     3.1260    -3.0170 ca         1 PN6      -0.122000
     22 C17         -6.4170     3.2580    -4.1320 ca         1 PN6      -0.125000
     23 C18         -5.9790     2.8210    -5.3700 ca         1 PN6      -0.122000
     24 C19         -4.7280     2.2560    -5.5030 ca         1 PN6      -0.131500
     25 H1          -0.5380     0.0460     0.9390 ha         1 PN6       0.169000
     26 H2           4.3760    -0.0060    -1.3670 h5         1 PN6       0.070100
     27 H3           2.7420     0.0010     4.4900 hc         1 PN6       0.042478
     28 H4           3.6620    -0.8800     3.2630 hc         1 PN6       0.042478
     29 H5           3.6470     0.8890     3.2570 hc         1 PN6       0.042478
     30 H6           1.0990    -1.5330     3.8590 hc         1 PN6       0.042478
     31 H7           1.3410    -2.0550     2.1860 hc         1 PN6       0.042478
     32 H8          -0.0500    -1.0460     2.6050 hc         1 PN6       0.042478
     33 H9           1.3140     2.0510     2.1630 hc         1 PN6       0.042478
     34 H10         -0.0660     1.0710     2.6770 hc         1 PN6       0.042478
     35 H11          1.1780     1.5280     3.8480 hc         1 PN6       0.042478
     36 H12          4.3870    -0.0000     1.2110 hn         1 PN6       0.305700
     37 H14          0.9610    -0.2810    -2.4200 hn         1 PN6       0.386500
     38 H15         -1.9880     1.6870    -5.4040 ha         1 PN6       0.171000
     39 H17         -3.7250     2.4540    -2.2570 ha         1 PN6       0.142000
     40 H18         -5.9570     3.4700    -2.0510 ha         1 PN6       0.133500
     41 H19         -7.3990     3.7040    -4.0350 ha         1 PN6       0.131000
     42 H20         -6.6170     2.9310    -6.2380 ha         1 PN6       0.133500
     43 H21         -4.3870     1.9150    -6.4730 ha         1 PN6       0.142000
     44 H13         -3.7440     0.8290    -2.2800 hn         1 PN6       0.359500
     45 C22          1.8320     0.0000     2.5440 c3         1 PN6       0.008300
@<TRIPOS>BOND
     1    22    23 ar
     2    22    21 ar
     3    23    24 ar
     4    21    20 ar
     5    24    19 ar
     6    20    19 ar
     7    19    18 1
     8    18    17 2
     9    13    17 1
    10    13    11 1
    11    17    15 1
    12    12    11 2
    13    11    10 1
    14    15    16 2
    15    15    14 1
    16    10    14 1
    17    10     1 2
    18     1     2 1
    19     2     9 1
    20     2     7 2
    21     9     3 2
    22     6    45 1
    23     7    45 1
    24     7     8 1
    25     5    45 1
    26    45     4 1
    27     3     8 1
    28     1    25 1
    29     3    26 1
    30     4    27 1
    31     4    28 1
    32     4    29 1
    33     5    30 1
    34     5    31 1
    35     5    32 1
    36     6    33 1
    37     6    34 1
    38     6    35 1
    39     8    36 1
    40    14    37 1
    41    18    38 1
    42    20    39 1
    43    21    40 1
    44    22    41 1
    45    23    42 1
    46    24    43 1
    47    13    44 1
@<TRIPOS>SUBSTRUCTURE
     1 PN6         1 TEMP              0 ****  ****    0 ROOT
