@<TRIPOS>MOLECULE
PN7
   43    42     1     0     0
SMALL
bcc


@<TRIPOS>ATOM
      1 O3           0.0000     0.0000     0.0000 oh         1 PN7      -0.530800
      2 O4           1.1650     0.2220     2.3350 o          1 PN7      -0.620100
      3 C2           1.9380     1.2490    -0.7210 c3         1 PN7      -0.098000
      4 C1           1.5450     2.4950     0.0760 c3         1 PN7       0.285400
      5 P            1.7870     5.1530    -0.0410 p5         1 PN7       0.692900
      6 O1P          2.3390     6.2200    -1.1120 o          1 PN7      -0.721833
      7 O2P          0.3400     5.3770     0.1770 o          1 PN7      -0.721833
      8 O3P          2.0210     3.6620    -0.5980 os         1 PN7      -0.484200
      9 CE1          1.3180     1.3200    -2.1180 c3         1 PN7       0.016400
     10 CE2          3.4620     1.1820    -0.8430 c3         1 PN7       0.016400
     11 C3           1.4290     0.0000     0.0000 c3         1 PN7       0.134100
     12 C4           1.9310     0.0000     1.4210 c          1 PN7       0.563100
     13 N5           3.2310    -0.2460     1.6760 ns         1 PN7      -0.239900
     14 C6           3.6980    -0.3570     3.0600 c3         1 PN7       0.067000
     15 C7           5.2020    -0.6370     3.0700 c3         1 PN7      -0.110400
     16 C8           5.6820    -0.7520     4.4940 c          1 PN7       0.580100
     17 O8           4.8980    -0.6230     5.4100 o          1 PN7      -0.631100
     18 N9           6.9820    -0.9980     4.7490 ns         1 PN7      -0.223900
     19 C10          7.4490    -1.1090     6.1340 c3         1 PN7       0.076000
     20 C11          8.9540    -1.3890     6.1430 c3         1 PN7       0.071700
     21 S12          9.5310    -1.5260     7.8570 sh         1 PN7      -0.457900
     22 H1          -0.3140    -0.8880    -0.0460 ho         1 PN7       0.353000
     23 H2           0.4670     2.5430     0.1620 h1         1 PN7      -0.008300
     24 H3           1.9850     2.4450     1.0640 h1         1 PN7      -0.008300
     25 H5           0.2720     1.5870    -2.0360 hc         1 PN7      -0.001633
     26 H6           1.8370     2.0680    -2.7050 hc         1 PN7      -0.001633
     27 H7           1.4080     0.3550    -2.6020 hc         1 PN7      -0.001633
     28 H8           3.7690     0.1500    -0.9660 hc         1 PN7      -0.001633
     29 H9           3.7820     1.7590    -1.7020 hc         1 PN7      -0.001633
     30 H10          3.9140     1.5880     0.0530 hc         1 PN7      -0.001633
     31 H11          1.7900    -0.8840    -0.5110 h1         1 PN7      -0.026300
     32 H12          3.8690    -0.3950     0.9190 hn         1 PN7       0.181500
     33 H13          3.5000     0.5700     3.5840 h1         1 PN7       0.039700
     34 H14          3.1770    -1.1690     3.5530 h1         1 PN7       0.039700
     35 H15          5.4000    -1.5640     2.5460 hc         1 PN7       0.026700
     36 H16          5.7240     0.1740     2.5770 hc         1 PN7       0.026700
     37 H17          7.6290    -1.1040     3.9930 hn         1 PN7       0.168500
     38 H18          6.9280    -1.9210     6.6260 h1         1 PN7       0.036700
     39 H19          7.2510    -0.1820     6.6570 h1         1 PN7       0.036700
     40 H20          9.4750    -0.5780     5.6500 h1         1 PN7       0.024700
     41 H21          9.1520    -2.3170     5.6200 h1         1 PN7       0.024700
     42 H22         10.8290    -1.8080     7.8660 hs         1 PN7       0.154800
     43 O4P          2.5760     5.3340     1.3520 o          1 PN7      -0.721833
@<TRIPOS>BOND
     1     1    11 1   
     2     1    22 1   
     3     2    12 2   
     4     3     4 1   
     5     3     9 1   
     6     3    10 1   
     7     3    11 1   
     8     4     8 1   
     9     4    23 1   
    10     4    24 1   
    11     5     6 1   
    12     5     7 1   
    13     5     8 1   
    14     5    43 1   
    15     9    25 1   
    16     9    26 1   
    17     9    27 1   
    18    10    28 1   
    19    10    29 1   
    20    10    30 1   
    21    11    12 1   
    22    11    31 1   
    23    12    13 1   
    24    13    14 1   
    25    13    32 1   
    26    14    15 1   
    27    14    33 1   
    28    14    34 1   
    29    15    16 1   
    30    15    35 1   
    31    15    36 1   
    32    16    17 2   
    33    16    18 1   
    34    18    19 1   
    35    18    37 1   
    36    19    20 1   
    37    19    38 1   
    38    19    39 1   
    39    20    21 1   
    40    20    40 1   
    41    20    41 1   
    42    21    42 1   
@<TRIPOS>SUBSTRUCTURE
     1 PN7         1 TEMP              0 ****  ****    0 ROOT
