@<TRIPOS>MOLECULE
molecule
   43    42     1     0     0
SMALL
bcc


@<TRIPOS>ATOM
      1 O3           0.0000     0.0000     0.0000 oh         1 PN7      -0.551800
      2 O4           1.1650     0.2220     2.3350 o          1 PN7      -0.581100
      3 C2           1.9380     1.2490    -0.7210 c3         1 PN7      -0.071000
      4 C1           1.5450     2.4950     0.0760 c3         1 PN7       0.229400
      5 P            1.7870     5.1530    -0.0410 p5         1 PN7       1.179900
      6 O1P          2.3390     6.2200    -1.1120 o          1 PN7      -0.909833
      7 O2P          0.3400     5.3770     0.1770 o          1 PN7      -0.909833
      8 O3P          2.0210     3.6620    -0.5980 os         1 PN7      -0.585200
      9 CE1          1.3180     1.3200    -2.1180 c3         1 PN7      -0.067100
     10 CE2          3.4620     1.1820    -0.8430 c3         1 PN7      -0.067100
     11 C3           1.4290     0.0000     0.0000 c3         1 PN7       0.088100
     12 C4           1.9310     0.0000     1.4210 c          1 PN7       0.644100
     13 N5           3.2310    -0.2460     1.6760 ns         1 PN7      -0.602900
     14 C6           3.6980    -0.3570     3.0600 c3         1 PN7       0.130000
     15 C7           5.2020    -0.6370     3.0700 c3         1 PN7      -0.174400
     16 C8           5.6820    -0.7520     4.4940 c          1 PN7       0.664100
     17 O8           4.8980    -0.6230     5.4100 o          1 PN7      -0.590100
     18 N9           6.9820    -0.9980     4.7490 ns         1 PN7      -0.600900
     19 C10          7.4490    -1.1090     6.1340 c3         1 PN7       0.131000
     20 C11          8.9540    -1.3890     6.1430 c3         1 PN7       0.020700
     21 S12          9.5310    -1.5260     7.8570 sh         1 PN7      -0.413900
     22 H1          -0.3140    -0.8880    -0.0460 ho         1 PN7       0.372000
     23 H2           0.4670     2.5430     0.1620 h1         1 PN7       0.031200
     24 H3           1.9850     2.4450     1.0640 h1         1 PN7       0.031200
     25 H5           0.2720     1.5870    -2.0360 hc         1 PN7       0.028533
     26 H6           1.8370     2.0680    -2.7050 hc         1 PN7       0.028533
     27 H7           1.4080     0.3550    -2.6020 hc         1 PN7       0.028533
     28 H8           3.7690     0.1500    -0.9660 hc         1 PN7       0.028533
     29 H9           3.7820     1.7590    -1.7020 hc         1 PN7       0.028533
     30 H10          3.9140     1.5880     0.0530 hc         1 PN7       0.028533
     31 H11          1.7900    -0.8840    -0.5110 h1         1 PN7       0.006700
     32 H12          3.8690    -0.3950     0.9190 hn         1 PN7       0.309500
     33 H13          3.5000     0.5700     3.5840 h1         1 PN7       0.068700
     34 H14          3.1770    -1.1690     3.5530 h1         1 PN7       0.068700
     35 H15          5.4000    -1.5640     2.5460 hc         1 PN7       0.061700
     36 H16          5.7240     0.1740     2.5770 hc         1 PN7       0.061700
     37 H17          7.6290    -1.1040     3.9930 hn         1 PN7       0.307500
     38 H18          6.9280    -1.9210     6.6260 h1         1 PN7       0.067200
     39 H19          7.2510    -0.1820     6.6570 h1         1 PN7       0.067200
     40 H20          9.4750    -0.5780     5.6500 h1         1 PN7       0.057200
     41 H21          9.1520    -2.3170     5.6200 h1         1 PN7       0.057200
     42 H22         10.8290    -1.8080     7.8660 hs         1 PN7       0.208800
     43 O4P          2.5760     5.3340     1.3520 o          1 PN7      -0.909833
@<TRIPOS>BOND
     1     1    11 1
     2    11    12 1
     3    11     3 1
     4     2    12 2
     5    10     3 1
     6    12    13 1
     7     4     3 1
     8     4     8 1
     9    13    14 1
    10     3     9 1
    11    14    15 1
    12     7     5 1
    13     6     5 1
    14    15    16 1
    15     5     8 1
    16    17    16 2
    17    16    18 1
    18    18    19 1
    19    21    20 1
    20    19    20 1
    21     1    22 1
    22     4    23 1
    23     4    24 1
    24     9    25 1
    25     9    26 1
    26     9    27 1
    27    10    28 1
    28    10    29 1
    29    10    30 1
    30    11    31 1
    31    13    32 1
    32    14    33 1
    33    14    34 1
    34    15    35 1
    35    15    36 1
    36    18    37 1
    37    19    38 1
    38    19    39 1
    39    20    40 1
    40    20    41 1
    41    21    42 1
    42     5    43 1
@<TRIPOS>SUBSTRUCTURE
     1 PN7         1 TEMP              0 ****  ****    0 ROOT
