@<TRIPOS>MOLECULE
PNB
   39    39     1     0     0
SMALL
bcc


@<TRIPOS>ATOM
      1 N1           0.0000     0.0000     0.0000 no         1 PNB       1.117200
      2 O4           1.2170     0.0000     0.0000 o          1 PNB      -0.512000
      3 O5          -0.6080     0.0000     1.0550 o          1 PNB      -0.512000
      4 C1          -2.0620     0.0050    -3.5630 ca         1 PNB       0.037700
      5 C2          -2.7570     0.0040    -2.3670 ca         1 PNB      -0.129500
      6 C3          -2.0780     0.0020    -1.1690 ca         1 PNB       0.005500
      7 C4          -0.6730     0.0010    -1.1650 ca         1 PNB      -0.559200
      8 C5           0.0230     0.0020    -2.3840 ca         1 PNB       0.005500
      9 C6          -0.6760    -0.0010    -3.5690 ca         1 PNB      -0.129500
     10 O1          -3.0530     1.3540    -5.2790 os         1 PNB      -0.462200
     11 P1          -3.8580     1.2810    -6.6720 p5         1 PNB       0.623600
     12 O2          -3.0430     0.5620    -7.6760 o          1 PNB      -0.660000
     13 O3          -5.2470     0.4980    -6.4480 o          1 PNB      -0.660000
     14 C8          -4.2000     2.9690    -7.2650 c3         1 PNB      -0.033600
     15 C9          -4.9660     2.9010    -8.5870 c3         1 PNB       0.025600
     16 C10         -5.2530     4.3180    -9.0860 c3         1 PNB      -0.106400
     17 C11         -6.0070     4.2490   -10.3890 c          1 PNB       0.551100
     18 O6          -6.2860     3.1730   -10.8720 o          1 PNB      -0.682100
     19 N2          -6.3700     5.3850   -11.0180 ns         1 PNB      -0.182900
     20 C12         -7.1030     5.3190   -12.2840 c3         1 PNB      -0.064000
     21 C13         -7.3860     6.7140   -12.7760 c          1 PNB       0.975600
     22 O7          -7.0140     7.6670   -12.1330 o          1 PNB      -0.906300
     23 O8          -8.0520     6.8990   -13.9270 o          1 PNB      -0.906300
     24 H2          -3.8410     0.0070    -2.3730 ha         1 PNB       0.128000
     25 H3          -2.6250     0.0010    -0.2340 ha         1 PNB       0.123000
     26 H5           1.1060    -0.0030    -2.3920 ha         1 PNB       0.123000
     27 H6          -0.1400    -0.0000    -4.5110 ha         1 PNB       0.128000
     28 H71         -3.7630    -0.5040    -4.7390 h1         1 PNB       0.023700
     29 H72         -2.2310    -0.5040    -5.6240 h1         1 PNB       0.023700
     30 H81         -3.2650     3.4950    -7.4160 hc         1 PNB       0.006700
     31 H82         -4.7960     3.4960    -6.5290 hc         1 PNB       0.006700
     32 H91         -5.9010     2.3750    -8.4360 hc         1 PNB       0.039700
     33 H92         -4.3700     2.3740    -9.3230 hc         1 PNB       0.039700
     34 H101        -5.8490     4.8450    -8.3510 hc         1 PNB       0.010200
     35 H102        -4.3180     4.8430    -9.2370 hc         1 PNB       0.010200
     36 HN2         -6.1390     6.2730   -10.6200 hn         1 PNB       0.191500
     37 H121        -8.0380     4.7930   -12.1330 h1         1 PNB       0.019200
     38 H122        -6.5070     4.7910   -13.0190 h1         1 PNB       0.019200
     39 C7          -2.8160     0.0060    -4.8680 c3         1 PNB       0.271700
@<TRIPOS>BOND
     1     1     2 1   
     2     1     3 1   
     3     1     7 1   
     4     4     5 ar  
     5     4     9 ar  
     6     4    39 1   
     7     5     6 ar  
     8     5    24 1   
     9     6     7 ar  
    10     6    25 1   
    11     7     8 ar  
    12     8     9 ar  
    13     8    26 1   
    14     9    27 1   
    15    10    11 1   
    16    10    39 1   
    17    11    12 1   
    18    11    13 1   
    19    11    14 1   
    20    14    15 1   
    21    14    30 1   
    22    14    31 1   
    23    15    16 1   
    24    15    32 1   
    25    15    33 1   
    26    16    17 1   
    27    16    34 1   
    28    16    35 1   
    29    17    18 2   
    30    17    19 1   
    31    19    20 1   
    32    19    36 1   
    33    20    21 1   
    34    20    37 1   
    35    20    38 1   
    36    21    22 1   
    37    21    23 1   
    38    28    39 1   
    39    29    39 1   
@<TRIPOS>SUBSTRUCTURE
     1 PNB         1 TEMP              0 ****  ****    0 ROOT
