@<TRIPOS>MOLECULE
molecule
   39    39     1     0     0
SMALL
bcc


@<TRIPOS>ATOM
      1 C1           0.0000     0.0000     0.0000 ca         1 PNC      -0.047300
      2 C2           1.3850     0.0000     0.0000 ca         1 PNC      -0.136500
      3 C3           2.0790     0.0000     1.1880 ca         1 PNC      -0.048500
      4 C4           1.3770    -0.0010     2.4060 ca         1 PNC      -0.207200
      5 C5          -0.0280    -0.0020     2.3950 ca         1 PNC      -0.048500
      6 C6          -0.7020     0.0050     1.1940 ca         1 PNC      -0.136500
      7 C7          -0.7490     0.0010    -1.3070 c3         1 PNC       0.150300
      8 C8          -1.9000    -3.0450    -3.3190 c3         1 PNC      -0.158400
      9 C9          -2.6590    -3.0450    -4.6460 c3         1 PNC      -0.050400
     10 C10         -2.9120    -4.4860    -5.0900 c3         1 PNC      -0.165400
     11 C11         -3.6610    -4.4870    -6.3990 c          1 PNC       0.640100
     12 C12         -4.7240    -5.6520    -8.2560 c3         1 PNC      -0.004000
     13 C13         -4.9750    -7.0720    -8.6920 c          1 PNC       0.883600
     14 C14         -1.6500    -1.6260    -2.8820 c          1 PNC       0.656100
     15 N1           2.0460    -0.0030     3.5730 no         1 PNC       0.330200
     16 N2          -3.9970    -5.6520    -6.9840 ns         1 PNC      -0.548900
     17 N3          -0.9920    -1.3810    -1.7320 ns         1 PNC      -0.599900
     18 O2          -2.0410    -0.7030    -3.5650 o          1 PNC      -0.592100
     19 O4           1.4330    -0.0040     4.6250 o          1 PNC      -0.226000
     20 O5           3.2640    -0.0030     3.5770 o          1 PNC      -0.226000
     21 O6          -3.9620    -3.4350    -6.9240 o          1 PNC      -0.645100
     22 O7          -4.5840    -7.9900    -8.0110 o          1 PNC      -0.846800
     23 O8          -5.6290    -7.3160    -9.8380 o          1 PNC      -0.846800
     24 H2           1.9240     0.0030    -0.9400 ha         1 PNC       0.155000
     25 H3           3.1580     0.0920     1.1850 ha         1 PNC       0.170000
     26 H5          -0.5770     0.0780     3.3250 ha         1 PNC       0.170000
     27 H6          -1.7860     0.0160     1.1840 ha         1 PNC       0.155000
     28 H71         -0.1610     0.5120    -2.0600 h1         1 PNC       0.065200
     29 H72         -1.6960     0.5120    -1.1810 h1         1 PNC       0.065200
     30 H81         -0.9530    -3.5560    -3.4450 hc         1 PNC       0.055700
     31 H82         -2.4880    -3.5560    -2.5670 hc         1 PNC       0.055700
     32 H91         -3.6050    -2.5340    -4.5210 hc         1 PNC       0.072700
     33 H92         -2.0700    -2.5340    -5.3990 hc         1 PNC       0.072700
     34 H101        -1.9660    -4.9970    -5.2160 hc         1 PNC       0.048700
     35 H102        -3.5010    -4.9970    -4.3380 hc         1 PNC       0.048700
     36 H121        -4.1350    -5.1420    -9.0080 h1         1 PNC       0.046700
     37 H122        -5.6710    -5.1410    -8.1300 h1         1 PNC       0.046700
     38 HN2         -3.7490    -6.5200    -6.5500 hn         1 PNC       0.330500
     39 HN3         -0.6910    -2.1410    -1.1550 hn         1 PNC       0.314500
@<TRIPOS>BOND
     1     1     2 ar
     2     1     6 ar
     3     1     7 1
     4     2     3 ar
     5     2    24 1
     6     3     4 ar
     7     3    25 1
     8     4     5 ar
     9     4    15 1
    10     5     6 ar
    11     5    26 1
    12     6    27 1
    13     7    17 1
    14     7    28 1
    15     7    29 1
    16     8     9 1
    17     8    14 1
    18     8    30 1
    19     8    31 1
    20     9    10 1
    21     9    32 1
    22     9    33 1
    23    10    11 1
    24    10    34 1
    25    10    35 1
    26    11    16 1
    27    11    21 2
    28    12    13 1
    29    12    16 1
    30    12    36 1
    31    12    37 1
    32    13    22 1
    33    13    23 1
    34    14    17 1
    35    14    18 2
    36    15    19 1
    37    15    20 1
    38    16    38 1
    39    17    39 1
@<TRIPOS>SUBSTRUCTURE
     1 PNC         1 TEMP              0 ****  ****    0 ROOT
