@<TRIPOS>MOLECULE
PND
   19    19     1     0     0
SMALL
bcc


@<TRIPOS>ATOM
      1 N1           0.0000     0.0000     0.0000 nz         1 PND       0.309600
      2 C1           2.0640     0.0000     1.2100 ca         1 PND       0.038600
      3 N2           1.3650     0.0000     0.0000 nu         1 PND      -0.484400
      4 C2           3.4530    -0.0010     1.2120 ca         1 PND      -0.154500
      5 C3           4.1400    -0.0010     2.4100 ca         1 PND       0.054500
      6 C4           3.4470    -0.0000     3.6070 ca         1 PND      -0.433200
      7 N4           4.1860    -0.0010     4.8880 no         1 PND       1.034200
      8 O3           5.4040    -0.0020     4.8880 o          1 PND      -0.418500
      9 O4           3.5770    -0.0010     5.9430 o          1 PND      -0.418500
     10 C5           2.0640    -0.0000     3.6080 ca         1 PND       0.054500
     11 C6           1.3700     0.0070     2.4140 ca         1 PND      -0.154500
     12 HN11        -0.3340     0.8180     0.4700 hn         1 PND       0.216800
     13 HN12        -0.3340    -0.0030    -0.9440 hn         1 PND       0.216800
     14 HN2          1.8660    -0.0010    -0.8670 hn         1 PND       0.385800
     15 H2           3.9960    -0.0010     0.2750 ha         1 PND       0.115500
     16 H3           5.2240    -0.0020     2.4130 ha         1 PND       0.152500
     17 H5           1.5240     0.0030     4.5470 ha         1 PND       0.152500
     18 H6           0.2870     0.0070     2.4160 ha         1 PND       0.115500
     19 H13         -0.3340    -0.8160     0.4740 hn         1 PND       0.216800
@<TRIPOS>BOND
     1     1     3 1   
     2     1    12 1   
     3     1    13 1   
     4     1    19 1   
     5     2     3 1   
     6     2     4 ar  
     7     2    11 ar  
     8     3    14 1   
     9     4     5 ar  
    10     4    15 1   
    11     5     6 ar  
    12     5    16 1   
    13     6     7 1   
    14     6    10 ar  
    15     7     8 1   
    16     7     9 1   
    17    10    11 ar  
    18    10    17 1   
    19    11    18 1   
@<TRIPOS>SUBSTRUCTURE
     1 PND         1 TEMP              0 ****  ****    0 ROOT
