@<TRIPOS>MOLECULE
molecule
   19    19     1     0     0
SMALL
bcc


@<TRIPOS>ATOM
      1 N1           0.0000     0.0000     0.0000 nz         1 PND      -0.494400
      2 C1           2.0640     0.0000     1.2100 ca         1 PND       0.153600
      3 N2           1.3650     0.0000     0.0000 nu         1 PND      -0.663400
      4 C2           3.4530    -0.0010     1.2120 ca         1 PND      -0.180000
      5 C3           4.1400    -0.0010     2.4100 ca         1 PND      -0.011000
      6 C4           3.4470    -0.0000     3.6070 ca         1 PND      -0.156200
      7 N4           4.1860    -0.0010     4.8880 no         1 PND       0.290200
      8 O3           5.4040    -0.0020     4.8880 o          1 PND      -0.170500
      9 O4           3.5770    -0.0010     5.9430 o          1 PND      -0.170500
     10 C5           2.0640    -0.0000     3.6080 ca         1 PND      -0.011000
     11 C6           1.3700     0.0070     2.4140 ca         1 PND      -0.180000
     12 HN11        -0.3340     0.8180     0.4700 hn         1 PND       0.465467
     13 HN12        -0.3340    -0.0030    -0.9440 hn         1 PND       0.465467
     14 HN2          1.8660    -0.0010    -0.8670 hn         1 PND       0.520800
     15 H2           3.9960    -0.0010     0.2750 ha         1 PND       0.144000
     16 H3           5.2240    -0.0020     2.4130 ha         1 PND       0.194500
     17 H5           1.5240     0.0030     4.5470 ha         1 PND       0.194500
     18 H6           0.2870     0.0070     2.4160 ha         1 PND       0.144000
     19 H13         -0.3340    -0.8160     0.4740 hn         1 PND       0.465467
@<TRIPOS>BOND
     1     1     3 1
     2     1    12 1
     3     1    13 1
     4     2     3 1
     5     2     4 ar
     6     2    11 ar
     7     3    14 1
     8     4     5 ar
     9     4    15 1
    10     5     6 ar
    11     5    16 1
    12     6     7 1
    13     6    10 ar
    14     7     8 1
    15     7     9 1
    16    10    11 ar
    17    10    17 1
    18    11    18 1
    19    19     1 1
@<TRIPOS>SUBSTRUCTURE
     1 PND         1 TEMP              0 ****  ****    0 ROOT
