@<TRIPOS>MOLECULE
PNE
   39    39     1     0     0
SMALL
bcc


@<TRIPOS>ATOM
      1 P1           0.0000     0.0000     0.0000 p5         1 PNE       0.644600
      2 O1           1.6080     0.0000     0.0000 os         1 PNE      -0.347500
      3 O2          -0.4160     0.0000     1.5570 o          1 PNE      -0.646000
      4 O3          -0.6770     1.0110    -0.8640 o          1 PNE      -0.646000
      5 C8          -0.3750    -1.6980    -0.4870 c3         1 PNE      -0.036600
      6 C9           0.0480    -2.0330    -1.9120 c3         1 PNE       0.011600
      7 C10         -0.2760    -3.4770    -2.2860 c3         1 PNE      -0.120400
      8 C11          0.1800    -3.8270    -3.6920 c          1 PNE       0.584100
      9 N2          -0.1220    -5.1430    -4.0130 ns         1 PNE      -0.203900
     10 O6           0.7410    -3.0280    -4.4350 o          1 PNE      -0.668100
     11 C12          0.1980    -5.7330    -5.2910 c3         1 PNE      -0.095300
     12 C1L          1.5700    -6.3830    -5.2130 c3         1 PNE       0.002900
     13 C13         -0.8800    -6.7400    -5.6070 c          1 PNE       0.976600
     14 O7          -1.4860    -7.4270    -4.7980 o          1 PNE      -0.898800
     15 O8          -1.1180    -6.7780    -6.9450 o          1 PNE      -0.898800
     16 C1           2.3820     1.0840     0.3120 ca         1 PNE       0.360100
     17 C2           3.7690     0.9740     0.2760 ca         1 PNE      -0.221000
     18 C6           1.7780     2.2890     0.6570 ca         1 PNE      -0.221000
     19 C4           3.9590     3.2900     0.9380 ca         1 PNE      -0.569200
     20 C5           2.5680     3.3950     0.9700 ca         1 PNE       0.025500
     21 C3           4.5590     2.0790     0.5910 ca         1 PNE       0.025500
     22 N1           4.7620     4.4160     1.2590 no         1 PNE       1.056200
     23 O4           6.0110     4.3000     1.2240 o          1 PNE      -0.502000
     24 O5           4.2020     5.4950     1.5690 o          1 PNE      -0.502000
     25 HC81        -1.4420    -1.8560    -0.3970 hc         1 PNE       0.029200
     26 HC82         0.1340    -2.3730     0.1920 hc         1 PNE       0.029200
     27 HC91        -0.4670    -1.3690    -2.5950 hc         1 PNE       0.019700
     28 HC92         1.1160    -1.8760    -2.0070 hc         1 PNE       0.019700
     29 H101        -1.3480    -3.6240    -2.2180 hc         1 PNE       0.018200
     30 H102         0.2140    -4.1400    -1.5830 hc         1 PNE       0.018200
     31 HN2         -0.5830    -5.7080    -3.3270 hn         1 PNE       0.188500
     32 H12          0.2070    -4.9620    -6.0530 h1         1 PNE       0.062700
     33 H1L1         1.6110    -7.0340    -4.3480 hc         1 PNE      -0.006300
     34 H1L2         2.3280    -5.6150    -5.1230 hc         1 PNE      -0.006300
     35 H1L3         1.7470    -6.9620    -6.1110 hc         1 PNE      -0.006300
     36 HC2          4.2330     0.0330     0.0070 ha         1 PNE       0.147000
     37 HC6          0.6980     2.3680     0.6810 ha         1 PNE       0.147000
     38 HC5          2.1010     4.3340     1.2390 ha         1 PNE       0.115000
     39 HC3          5.6390     1.9980     0.5650 ha         1 PNE       0.115000
@<TRIPOS>BOND
     1     1     2 1   
     2     1     3 1   
     3     1     4 1   
     4     1     5 1   
     5     2    16 1   
     6     5     6 1   
     7     5    25 1   
     8     5    26 1   
     9     6     7 1   
    10     6    27 1   
    11     6    28 1   
    12     7     8 1   
    13     7    29 1   
    14     7    30 1   
    15     8     9 1   
    16     8    10 2   
    17     9    11 1   
    18     9    31 1   
    19    11    12 1   
    20    11    13 1   
    21    11    32 1   
    22    12    33 1   
    23    12    34 1   
    24    12    35 1   
    25    13    14 1   
    26    13    15 1   
    27    16    17 ar  
    28    16    18 ar  
    29    17    21 ar  
    30    17    36 1   
    31    18    20 ar  
    32    18    37 1   
    33    19    20 ar  
    34    19    21 ar  
    35    19    22 1   
    36    20    38 1   
    37    21    39 1   
    38    22    23 1   
    39    22    24 1   
@<TRIPOS>SUBSTRUCTURE
     1 PNE         1 TEMP              0 ****  ****    0 ROOT
