@<TRIPOS>MOLECULE
PNF
   48    48     1     0     0
SMALL
bcc


@<TRIPOS>ATOM
      1 C1           0.0000     0.0000     0.0000 ca         1 PNF       0.351100
      2 C2           1.3930     0.0000     0.0000 ca         1 PNF      -0.184000
      3 C3           2.0790     0.0000     1.1780 ca         1 PNF       0.037000
      4 C4           1.3760    -0.0020     2.3980 ca         1 PNF      -0.610200
      5 C5          -0.0320    -0.0020     2.3900 ca         1 PNF       0.037000
      6 C6          -0.7030     0.0040     1.2030 ca         1 PNF      -0.184000
      7 P1          -0.9050    -1.5390    -1.5810 p5         1 PNF       0.615600
      8 O1          -0.6730     0.0020    -1.1760 os         1 PNF      -0.370500
      9 O2           0.5190    -2.2710    -1.7410 o          1 PNF      -0.634000
     10 O3          -1.6920    -2.2140    -0.5260 o          1 PNF      -0.634000
     11 C8          -1.8110    -1.6220    -3.1610 c3         1 PNF      -0.039600
     12 C9          -2.0310    -3.0860    -3.5470 c3         1 PNF       0.026600
     13 C10         -2.7910    -3.1550    -4.8720 c3         1 PNF      -0.104400
     14 C11         -3.0080    -4.5960    -5.2520 c          1 PNF       0.568100
     15 N2          -3.6610    -4.9020    -6.3900 ns         1 PNF      -0.218900
     16 O6          -2.5940    -5.4810    -4.5340 o          1 PNF      -0.642100
     17 C12         -3.8710    -6.3040    -6.7610 c3         1 PNF       0.048000
     18 C13         -4.6310    -6.3740    -8.0860 c3         1 PNF      -0.043400
     19 C14         -4.8510    -7.8370    -8.4720 c3         1 PNF      -0.032400
     20 C15         -5.6120    -7.9060    -9.7980 c3         1 PNF      -0.016400
     21 C16         -5.8320    -9.3710   -10.1840 c3         1 PNF      -0.133400
     22 C17         -6.5810    -9.4390   -11.4900 c          1 PNF       0.981600
     23 O7          -6.9060    -8.4220   -12.0540 o          1 PNF      -0.910300
     24 O8          -6.8880   -10.6310   -12.0270 o          1 PNF      -0.910300
     25 N1           2.0430    -0.0040     3.5600 no         1 PNF       1.131200
     26 O4           1.4320    -0.0050     4.6140 o          1 PNF      -0.530500
     27 O5           3.2600    -0.0040     3.5650 o          1 PNF      -0.530500
     28 H21          1.9330    -0.0010    -0.9390 ha         1 PNF       0.133000
     29 H31          3.1620     0.0000     1.1760 ha         1 PNF       0.116500
     30 H51         -0.5810    -0.0010     3.3240 ha         1 PNF       0.116500
     31 H61         -1.7860     0.0030     1.1950 ha         1 PNF       0.133000
     32 H81         -2.7690    -1.1290    -3.0540 hc         1 PNF       0.009700
     33 H82         -1.2350    -1.1280    -3.9340 hc         1 PNF       0.009700
     34 H91         -2.6070    -3.5810    -2.7740 hc         1 PNF       0.042700
     35 H92         -1.0720    -3.5790    -3.6550 hc         1 PNF       0.042700
     36 H101        -3.7490    -2.6620    -4.7640 hc         1 PNF       0.014200
     37 H102        -2.2150    -2.6600    -5.6450 hc         1 PNF       0.014200
     38 HN21        -4.0020    -4.1720    -6.9830 hn         1 PNF       0.167500
     39 H121        -2.9120    -6.7970    -6.8690 h1         1 PNF       0.021700
     40 H122        -4.4460    -6.8000    -5.9880 h1         1 PNF       0.021700
     41 H131        -5.5900    -5.8810    -7.9790 hc         1 PNF       0.012700
     42 H132        -4.0550    -5.8800    -8.8590 hc         1 PNF       0.012700
     43 H141        -5.4270    -8.3320    -7.7000 hc         1 PNF       0.008700
     44 H142        -3.8930    -8.3310    -8.5800 hc         1 PNF       0.008700
     45 H151        -5.0360    -7.4120   -10.5710 hc         1 PNF       0.018700
     46 H152        -6.5700    -7.4130    -9.6900 hc         1 PNF       0.018700
     47 H161        -6.4080    -9.8650    -9.4110 hc         1 PNF       0.004700
     48 H162        -4.8740    -9.8640   -10.2920 hc         1 PNF       0.004700
@<TRIPOS>BOND
     1     1     2 ar  
     2     1     6 ar  
     3     1     8 1   
     4     2     3 ar  
     5     2    28 1   
     6     3     4 ar  
     7     3    29 1   
     8     4     5 ar  
     9     4    25 1   
    10     5     6 ar  
    11     5    30 1   
    12     6    31 1   
    13     7     8 1   
    14     7     9 1   
    15     7    10 1   
    16     7    11 1   
    17    11    12 1   
    18    11    32 1   
    19    11    33 1   
    20    12    13 1   
    21    12    34 1   
    22    12    35 1   
    23    13    14 1   
    24    13    36 1   
    25    13    37 1   
    26    14    15 1   
    27    14    16 2   
    28    15    17 1   
    29    15    38 1   
    30    17    18 1   
    31    17    39 1   
    32    17    40 1   
    33    18    19 1   
    34    18    41 1   
    35    18    42 1   
    36    19    20 1   
    37    19    43 1   
    38    19    44 1   
    39    20    21 1   
    40    20    45 1   
    41    20    46 1   
    42    21    22 1   
    43    21    47 1   
    44    21    48 1   
    45    22    23 1   
    46    22    24 1   
    47    25    26 1   
    48    25    27 1   
@<TRIPOS>SUBSTRUCTURE
     1 PNF         1 TEMP              0 ****  ****    0 ROOT
