@<TRIPOS>MOLECULE
molecule
   16    15     1     0     0
SMALL
bcc


@<TRIPOS>ATOM
      1 C1           0.0000     0.0000     0.0000 c3         1 PNH      -0.094100
      2 C3           2.0400     0.0000     1.4430 c3         1 PNH      -0.184400
      3 C4           3.5460    -0.0000     1.4430 c          1 PNH       0.560100
      4 O6           4.1510    -0.0000     0.3980 o          1 PNH      -0.525100
      5 C5           4.3000    -0.0000     2.7490 c3         1 PNH      -0.197100
      6 C2           1.5300     0.0000     0.0000 c3         1 PNH      -0.074400
      7 H1          -0.3610    -0.8850     0.5110 hc         1 PNH       0.033033
      8 H1A         -0.3610     0.0000    -1.0210 hc         1 PNH       0.033033
      9 H1B         -0.3610     0.8850     0.5110 hc         1 PNH       0.033033
     10 H3           1.6790    -0.8840     1.9540 hc         1 PNH       0.063700
     11 H3A          1.6790     0.8840     1.9540 hc         1 PNH       0.063700
     12 H5           4.0390    -0.8850     3.3170 hc         1 PNH       0.060367
     13 H5A          5.3650    -0.0000     2.5500 hc         1 PNH       0.060367
     14 H5B          4.0390     0.8850     3.3170 hc         1 PNH       0.060367
     15 H2           1.8910     0.8850    -0.5110 hc         1 PNH       0.054700
     16 H2A          1.8910    -0.8850    -0.5110 hc         1 PNH       0.054700
@<TRIPOS>BOND
     1     1     6 1
     2     2     3 1
     3     2     6 1
     4     3     4 2
     5     3     5 1
     6     1     7 1
     7     1     8 1
     8     1     9 1
     9     2    10 1
    10     2    11 1
    11     5    12 1
    12     5    13 1
    13     5    14 1
    14     6    15 1
    15     6    16 1
@<TRIPOS>SUBSTRUCTURE
     1 PNH         1 TEMP              0 ****  ****    0 ROOT
