@<TRIPOS>MOLECULE
molecule
   42    43     1     0     0
SMALL
bcc


@<TRIPOS>ATOM
      1 C1           1.5080     0.0000     0.0000 c3         1 PNK       0.013700
      2 C2           0.0000     0.0000     0.0000 c          1 PNK       0.892600
      3 C3           1.5780     2.4360    -5.0150 ca         1 PNK      -0.109500
      4 C4           2.0170     0.0000     1.4420 c3         1 PNK       0.308600
      5 C5           3.9660    -0.5380     2.8000 c3         1 PNK       0.052500
      6 C6           2.9810    -1.5130     3.4740 c3         1 PNK       0.035100
      7 C7           1.6250     2.1950    -6.3760 ca         1 PNK      -0.137000
      8 C8           2.7730     1.6790    -6.9470 ca         1 PNK      -0.150000
      9 C9           4.1530     0.6600     3.6960 c          1 PNK       0.909600
     10 C10          3.8730     1.4030    -6.1580 ca         1 PNK      -0.137000
     11 C11          3.8260     1.6430    -4.7980 ca         1 PNK      -0.109500
     12 C12          3.6080    -2.9010     3.6140 c3         1 PNK      -0.068100
     13 N1           3.5050    -0.0790     1.4870 n7         1 PNK      -0.784200
     14 O1           4.9840     0.5870     4.7480 o          1 PNK      -0.853800
     15 O2           3.5570     1.6840     3.4670 o          1 PNK      -0.853800
     16 O3          -0.6710    -1.1610     0.0640 o          1 PNK      -0.842300
     17 O4          -0.6030     1.0450    -0.0590 o          1 PNK      -0.842300
     18 O5           1.8360     0.2000    -2.6680 o          1 PNK      -0.629100
     19 C16          2.6790     2.1600    -4.2260 ca         1 PNK      -0.030300
     20 C15          2.6280     2.4220    -2.7430 c3         1 PNK      -0.124100
     21 N2           1.9960     1.1960    -0.6910 ns         1 PNK      -0.523900
     22 S1           1.5600    -1.5590     2.3090 ss         1 PNK      -0.415200
     23 C13          2.5430    -0.9790     4.8390 c3         1 PNK      -0.068100
     24 H1           1.8690    -0.8850    -0.5100 h1         1 PNK       0.078700
     25 H4           1.6590     0.8640     1.9890 h2         1 PNK       0.119700
     26 H5           4.9180    -1.0390     2.6770 h1         1 PNK       0.045700
     27 H8           2.8100     1.4910    -8.0140 ha         1 PNK       0.106000
     28 H10          4.7730     0.9980    -6.6060 ha         1 PNK       0.112000
     29 H11          4.6890     1.4270    -4.1800 ha         1 PNK       0.134000
     30 H12          4.4690    -2.8440     4.2700 hc         1 PNK       0.033867
     31 H12A         2.8800    -3.5850     4.0330 hc         1 PNK       0.033867
     32 H12B         3.9200    -3.2570     2.6400 hc         1 PNK       0.033867
     33 HN1          3.8270    -0.7100     0.7810 hn         1 PNK       0.330800
     34 H15          1.9600     3.2520    -2.5460 hc         1 PNK       0.059700
     35 H15A         3.6210     2.6650    -2.3850 hc         1 PNK       0.059700
     36 HN2          2.1900     2.0290    -0.1720 hn         1 PNK       0.318500
     37 H13          3.3980    -0.9470     5.5050 hc         1 PNK       0.033867
     38 H13A         1.7850    -1.6310     5.2560 hc         1 PNK       0.033867
     39 H13B         2.1380     0.0190     4.7240 hc         1 PNK       0.033867
     40 C14          2.1250     1.1920    -2.0330 c          1 PNK       0.653100
     41 H3           0.6780     2.8410    -4.5680 ha         1 PNK       0.134000
     42 H7           0.7620     2.4120    -6.9950 ha         1 PNK       0.112000
@<TRIPOS>BOND
     1     1     2 1
     2     1     4 1
     3     1    21 1
     4     2    16 1
     5     2    17 1
     6     3     7 ar
     7     3    19 ar
     8     4    13 1
     9     4    22 1
    10     5     6 1
    11     5     9 1
    12     5    13 1
    13     6    12 1
    14     6    22 1
    15     6    23 1
    16     7     8 ar
    17     8    10 ar
    18     9    14 1
    19     9    15 1
    20    10    11 ar
    21    11    19 ar
    22    18    40 2
    23    19    20 1
    24    20    40 1
    25    40    21 1
    26     1    24 1
    27     3    41 1
    28     4    25 1
    29     5    26 1
    30     7    42 1
    31     8    27 1
    32    10    28 1
    33    11    29 1
    34    12    30 1
    35    12    31 1
    36    12    32 1
    37    13    33 1
    38    20    34 1
    39    20    35 1
    40    21    36 1
    41    23    37 1
    42    23    38 1
    43    23    39 1
@<TRIPOS>SUBSTRUCTURE
     1 PNK         1 TEMP              0 ****  ****    0 ROOT
