@<TRIPOS>MOLECULE
PNL
   10     9     1     0     0
SMALL
bcc


@<TRIPOS>ATOM
      1 C1          0.0360   -0.0130    0.0190 c         1 PNL      0.564900
      2 O1          1.1880   -0.4320   -0.0910 o         1 PNL     -0.528100
      3 C2         -0.6730    0.0910    1.3350 c3        1 PNL     -0.204400
      4 C3         -1.6930    1.1980    1.3380 c3        1 PNL     -0.092100
      5 H1         -0.5530    0.3080   -0.8700 h4        1 PNL     -0.006800
      6 H21        -1.1760   -0.8960    1.5280 hc        1 PNL      0.073200
      7 H22         0.0740    0.2470    2.1580 hc        1 PNL      0.073200
      8 H31        -2.2200    1.2310    2.3220 hc        1 PNL      0.040033
      9 H32        -2.4550    1.0420    0.5360 hc        1 PNL      0.040033
     10 H33        -1.2030    2.1880    1.1690 hc        1 PNL      0.040033
@<TRIPOS>BOND
     1    1    2 2   
     2    1    3 1   
     3    1    5 1   
     4    3    4 1   
     5    3    6 1   
     6    3    7 1   
     7    4    8 1   
     8    4    9 1   
     9    4   10 1   
@<TRIPOS>SUBSTRUCTURE
     1 PNL         1 TEMP              0 ****  ****    0 ROOT
