@<TRIPOS>MOLECULE
molecule
   10     9     1     0     0
SMALL
bcc


@<TRIPOS>ATOM
      1 C1           0.0000     0.0000     0.0000 c          1 PNL       0.568900
      2 O1           1.2070     0.0000     0.0000 o          1 PNL      -0.522100
      3 C2          -0.7540     0.0000     1.3030 c3         1 PNL      -0.206400
      4 C3          -1.6350     1.2480     1.3840 c3         1 PNL      -0.085100
      5 H1          -0.5410    -0.0270    -0.9380 h4         1 PNL      -0.006800
      6 H21         -0.0500     0.0010     2.1270 hc         1 PNL       0.066700
      7 H22         -1.3750    -0.8850     1.3610 hc         1 PNL       0.066700
      8 H31         -2.3940     1.2050     0.6120 hc         1 PNL       0.040033
      9 H32         -2.1110     1.2920     2.3560 hc         1 PNL       0.040033
     10 H33         -1.0240     2.1310     1.2410 hc         1 PNL       0.040033
@<TRIPOS>BOND
     1     1     2 2
     2     1     3 1
     3     1     5 1
     4     3     4 1
     5     3     6 1
     6     3     7 1
     7     4     8 1
     8     4     9 1
     9     4    10 1
@<TRIPOS>SUBSTRUCTURE
     1 PNL         1 TEMP              0 ****  ****    0 ROOT
