@<TRIPOS>MOLECULE
PNM
   42    43     1     0     0
SMALL
bcc


@<TRIPOS>ATOM
      1 O8           0.0000     0.0000     0.0000 o          1 PNM      -0.566100
      2 C7           1.2070     0.0000     0.0000 c          1 PNM       0.658900
      3 N4           2.0170    -2.4880     1.5130 n7         1 PNM      -0.605200
      4 C3           2.7720    -3.6020     2.0940 c3         1 PNM      -0.007500
      5 C11          3.4570    -4.3520     0.9830 c          1 PNM       0.962600
      6 O13          3.7150    -5.6620     1.1170 o          1 PNM      -0.883300
      7 O12          3.7730    -3.7740    -0.0300 o          1 PNM      -0.883300
      8 C2           3.8400    -3.1620     3.1200 c3         1 PNM       0.131100
      9 C10          5.2250    -3.6780     2.7220 c3         1 PNM      -0.000100
     10 C9           3.4710    -3.6270     4.5300 c3         1 PNM      -0.000100
     11 S1           3.7570    -1.3250     2.9880 ss         1 PNM      -0.480200
     12 C5           2.8400    -1.2500     1.3860 c3         1 PNM       0.251600
     13 C6           1.9600     0.0000     1.3050 c3         1 PNM      -0.088300
     14 N14          1.0090    -0.0000     2.4190 ns         1 PNM      -0.139900
     15 C15          0.5710     1.1670     2.9310 c          1 PNM       0.573100
     16 O16          0.9650     2.2170     2.4700 o          1 PNM      -0.673100
     17 C17         -0.4080     1.1670     4.0750 c3         1 PNM      -0.043100
     18 C18         -0.7350     2.5870     4.4570 ca         1 PNM      -0.050300
     19 C19         -1.7940     3.2390     3.8560 ca         1 PNM      -0.085000
     20 C20         -2.0930     4.5420     4.2060 ca         1 PNM      -0.105000
     21 C21         -1.3340     5.1930     5.1590 ca         1 PNM      -0.114000
     22 C22         -0.2760     4.5410     5.7620 ca         1 PNM      -0.105000
     23 C23          0.0210     3.2360     5.4150 ca         1 PNM      -0.085000
     24 HC7          1.7480     0.0440    -0.9370 h4         1 PNM      -0.036800
     25 H4           1.6710    -2.7530     0.6130 hn         1 PNM       0.284800
     26 HC3          2.0740    -4.2670     2.5890 h1         1 PNM       0.056700
     27 H101         5.2200    -4.7610     2.7230 hc         1 PNM       0.019033
     28 H102         5.9610    -3.3190     3.4320 hc         1 PNM       0.019033
     29 H103         5.4730    -3.3180     1.7310 hc         1 PNM       0.019033
     30 HC91         2.4430    -3.3570     4.7420 hc         1 PNM       0.019033
     31 HC92         4.1250    -3.1500     5.2510 hc         1 PNM       0.019033
     32 HC93         3.5830    -4.7020     4.5970 hc         1 PNM       0.019033
     33 HC5          3.5190    -1.3180     0.5440 h2         1 PNM       0.079700
     34 HC6          2.5830     0.8840     1.3620 h1         1 PNM       0.080700
     35 H14          0.6540    -0.8670     2.7730 hn         1 PNM       0.200500
     36 H171        -1.3150     0.6560     3.7730 hc         1 PNM       0.031700
     37 H172         0.0290     0.6550     4.9240 hc         1 PNM       0.031700
     38 H19         -2.3890     2.7290     3.1080 ha         1 PNM       0.105500
     39 H20         -2.9230     5.0530     3.7330 ha         1 PNM       0.095000
     40 H21         -1.5680     6.2150     5.4330 ha         1 PNM       0.093000
     41 H22          0.3180     5.0510     6.5110 ha         1 PNM       0.095000
     42 H23          0.8510     2.7260     5.8880 ha         1 PNM       0.105500
@<TRIPOS>BOND
     1     1     2 2   
     2     2    13 1   
     3     2    24 1   
     4     3     4 1   
     5     3    12 1   
     6     3    25 1   
     7     4     5 1   
     8     4     8 1   
     9     4    26 1   
    10     5     6 1   
    11     5     7 1   
    12     8     9 1   
    13     8    10 1   
    14     8    11 1   
    15     9    27 1   
    16     9    28 1   
    17     9    29 1   
    18    10    30 1   
    19    10    31 1   
    20    10    32 1   
    21    11    12 1   
    22    12    13 1   
    23    12    33 1   
    24    13    14 1   
    25    13    34 1   
    26    14    15 1   
    27    14    35 1   
    28    15    16 2   
    29    15    17 1   
    30    17    18 1   
    31    17    36 1   
    32    17    37 1   
    33    18    19 ar  
    34    18    23 ar  
    35    19    20 ar  
    36    19    38 1   
    37    20    21 ar  
    38    20    39 1   
    39    21    22 ar  
    40    21    40 1   
    41    22    23 ar  
    42    22    41 1   
    43    23    42 1   
@<TRIPOS>SUBSTRUCTURE
     1 PNM         1 TEMP              0 ****  ****    0 ROOT
