@<TRIPOS>MOLECULE
molecule
   40    42     1     0     0
SMALL
bcc


@<TRIPOS>ATOM
      1 O8           0.0000     0.0000     0.0000 o          1 PNN      -0.526500
      2 C7           1.2130     0.0000     0.0000 c          1 PNN       0.666500
      3 N4           2.1820     0.0000     1.0070 nj         1 PNN      -0.359800
      4 C3           2.2660     1.2180     1.8200 c3         1 PNN      -0.049300
      5 C11          1.6430     0.9530     3.1670 c          1 PNN       0.900600
      6 O13          1.0810     1.9590     3.8550 o          1 PNN      -0.817800
      7 O12          1.6500    -0.1630     3.6270 o          1 PNN      -0.817800
      8 C2           3.7360     1.6890     1.9970 c3         1 PNN       0.116100
      9 C10          4.4510     0.9010     3.0960 c3         1 PNN      -0.069600
     10 C9           3.8160     3.1950     2.2510 c3         1 PNN      -0.069600
     11 S1           4.3720     1.2470     0.3180 ss         1 PNN      -0.484200
     12 C5           3.2830    -0.2070     0.0370 cy         1 PNN       0.140800
     13 C6           2.2650    -0.0170    -1.0880 cy         1 PNN      -0.014300
     14 N14          2.4020     1.2550    -1.8000 ns         1 PNN      -0.555900
     15 C15          2.0580     1.3410    -3.1000 c          1 PNN       0.659100
     16 O16          1.6360     0.3640    -3.6800 o          1 PNN      -0.606100
     17 C17          2.2000     2.6490    -3.8320 c3         1 PNN      -0.112100
     18 C18          1.7500     2.4770    -5.2600 ca         1 PNN      -0.043300
     19 C19          0.4290     2.6950    -5.6000 ca         1 PNN      -0.108500
     20 C20          0.0180     2.5380    -6.9100 ca         1 PNN      -0.136500
     21 C21          0.9280     2.1620    -7.8810 ca         1 PNN      -0.134000
     22 C22          2.2500     1.9470    -7.5410 ca         1 PNN      -0.136500
     23 C23          2.6620     2.1090    -6.2310 ca         1 PNN      -0.108500
     24 HC3          1.7100     2.0030     1.3230 h1         1 PNN       0.052700
     25 H101         4.1020     1.2350     4.0660 hc         1 PNN       0.048700
     26 H102         5.5190     1.0640     3.0210 hc         1 PNN       0.048700
     27 H103         4.2380    -0.1550     2.9800 hc         1 PNN       0.048700
     28 HC91         3.2200     3.7180     1.5130 hc         1 PNN       0.048700
     29 HC92         4.8480     3.5190     2.1760 hc         1 PNN       0.048700
     30 HC93         3.4390     3.4150     3.2420 hc         1 PNN       0.048700
     31 HC5          3.7500    -1.1830     0.0920 h2         1 PNN       0.110700
     32 HC6          2.1870    -0.8840    -1.7330 h1         1 PNN       0.105700
     33 H14          2.7640     2.0580    -1.3240 hn         1 PNN       0.343500
     34 H171         3.2370     2.9620    -3.8150 hc         1 PNN       0.066700
     35 H172         1.5880     3.4020    -3.3490 hc         1 PNN       0.066700
     36 H19         -0.2770     3.0220    -4.8460 ha         1 PNN       0.132500
     37 H20         -1.0180     2.7100    -7.1770 ha         1 PNN       0.122500
     38 H21          0.6110     2.0630    -8.9120 ha         1 PNN       0.119000
     39 H22          2.9650     1.6600    -8.3020 ha         1 PNN       0.122500
     40 H23          3.7380     1.9890    -6.1950 ha         1 PNN       0.132500
@<TRIPOS>BOND
     1     1     2 2
     2     2     3 1
     3     2    13 1
     4     3     4 1
     5     3    12 1
     6     4     5 1
     7     4     8 1
     8     4    24 1
     9     5     6 1
    10     5     7 1
    11     8     9 1
    12     8    10 1
    13     8    11 1
    14     9    25 1
    15     9    26 1
    16     9    27 1
    17    10    28 1
    18    10    29 1
    19    10    30 1
    20    11    12 1
    21    12    13 1
    22    12    31 1
    23    13    14 1
    24    13    32 1
    25    14    15 1
    26    14    33 1
    27    15    16 2
    28    15    17 1
    29    17    18 1
    30    17    34 1
    31    17    35 1
    32    18    19 ar
    33    18    23 ar
    34    19    20 ar
    35    19    36 1
    36    20    21 ar
    37    20    37 1
    38    21    22 ar
    39    21    38 1
    40    22    23 ar
    41    22    39 1
    42    23    40 1
@<TRIPOS>SUBSTRUCTURE
     1 PNN         1 TEMP              0 ****  ****    0 ROOT
