@<TRIPOS>MOLECULE
PNO
   12    11     1     0     0
SMALL
bcc


@<TRIPOS>ATOM
      1 N1          0.0900    0.0150   -0.0260 n4        1 PNO     -0.858700
      2 P1          1.8690   -0.0090   -0.0780 p5        1 PNO      1.468200
      3 O1          2.1730    0.2560    1.4580 oh        1 PNO     -0.785400
      4 O2          2.1940   -1.3630   -0.4690 o         1 PNO     -0.750300
      5 C1          2.2290    1.3230   -0.9050 c3        1 PNO     -0.507300
      6 HN1        -0.2690   -0.9060   -0.3030 hn        1 PNO      0.472800
      7 HN2        -0.3390    0.7060   -0.6390 hn        1 PNO      0.472800
      8 HO1         2.6110   -0.4220    1.9800 ho        1 PNO      0.533000
      9 H1          3.3330    1.3810   -1.1460 hc        1 PNO      0.160700
     10 H2          1.7420    1.4290   -1.9110 hc        1 PNO      0.160700
     11 H3          2.0300    2.2910   -0.3680 hc        1 PNO      0.160700
     12 H13        -0.2570    0.1980    0.9200 hn        1 PNO      0.472800
@<TRIPOS>BOND
     1    1    2 1
     2    1    6 1
     3    1    7 1
     4    1   12 1
     5    2    3 1
     6    2    4 2
     7    2    5 1
     8    3    8 1
     9    5    9 1
    10    5   10 1
    11    5   11 1
@<TRIPOS>SUBSTRUCTURE
     1 PNO         1 TEMP              0 ****  ****    0 ROOT
