@<TRIPOS>MOLECULE
molecule
   21    21     1     0     0
SMALL
bcc


@<TRIPOS>ATOM
      1 C1           0.0000     0.0000     0.0000 ca         1 PNP       0.238100
      2 C2           1.3920     0.0000     0.0000 ca         1 PNP      -0.155000
      3 C3           2.0780     0.0000     1.1790 ca         1 PNP      -0.033500
      4 C4           1.3740    -0.0000     2.3980 ca         1 PNP      -0.257200
      5 C5          -0.0330    -0.0020     2.3900 ca         1 PNP      -0.033500
      6 C6          -0.7050     0.0040     1.2020 ca         1 PNP      -0.155000
      7 CM          -1.8100    -1.6250    -3.1600 c3         1 PNP      -0.272300
      8 N            2.0410    -0.0010     3.5610 no         1 PNP       0.346200
      9 O1N          1.4290    -0.0010     4.6130 o          1 PNP      -0.263000
     10 O2N          3.2590    -0.0000     3.5650 o          1 PNP      -0.263000
     11 P           -0.9050    -1.5400    -1.5810 p5         1 PNP       1.095600
     12 O1P         -0.6740     0.0000    -1.1750 os         1 PNP      -0.448500
     13 O2P         -1.6910    -2.2150    -0.5240 o          1 PNP      -0.789000
     14 O3P          0.5200    -2.2720    -1.7380 o          1 PNP      -0.789000
     15 H2           1.9320    -0.0010    -0.9390 ha         1 PNP       0.165000
     16 H3           3.1610     0.0010     1.1770 ha         1 PNP       0.154500
     17 H5          -0.5820    -0.0000     3.3240 ha         1 PNP       0.154500
     18 H6          -1.7880     0.0030     1.1930 ha         1 PNP       0.165000
     19 HM1         -1.9650    -2.6620    -3.4310 hc         1 PNP       0.046367
     20 HM2         -1.2340    -1.1310    -3.9330 hc         1 PNP       0.046367
     21 HM3         -2.7690    -1.1330    -3.0530 hc         1 PNP       0.046367
@<TRIPOS>BOND
     1     1     2 ar
     2     1     6 ar
     3     1    12 1
     4     2     3 ar
     5     2    15 1
     6     3     4 ar
     7     3    16 1
     8     4     5 ar
     9     4     8 1
    10     5     6 ar
    11     5    17 1
    12     6    18 1
    13     7    11 1
    14     7    19 1
    15     7    20 1
    16     7    21 1
    17     8     9 1
    18     8    10 1
    19    11    12 1
    20    11    13 1
    21    11    14 1
@<TRIPOS>SUBSTRUCTURE
     1 PNP         1 TEMP              0 ****  ****    0 ROOT
