@<TRIPOS>MOLECULE
PNR
   62    62     1     0     0
SMALL
bcc


@<TRIPOS>ATOM
      1 O2           0.0000     0.0000     0.0000 o          1 PNR      -0.450000
      2 N1           1.2180     0.0000     0.0000 no         1 PNR       1.050200
      3 O1           1.8270     0.0000     1.0540 o          1 PNR      -0.450000
      4 C22          1.9580    -0.0070    -1.2820 ca         1 PNR      -0.460200
      5 C21          3.3400    -0.0130    -1.2810 ca         1 PNR       0.009000
      6 C20          4.0340    -0.0180    -2.4760 ca         1 PNR      -0.134000
      7 C23          1.2650    -0.0120    -2.4790 ca         1 PNR       0.009000
      8 C24          1.9540    -0.0190    -3.6760 ca         1 PNR      -0.134000
      9 C19          3.3410    -0.0190    -3.6770 ca         1 PNR       0.184100
     10 O18          4.0210    -0.0240    -4.8550 os         1 PNR      -0.329200
     11 C16          3.9590     1.0910    -5.6000 c          1 PNR       0.688100
     12 O17          3.4070     2.0760    -5.1680 o          1 PNR      -0.562000
     13 C15          4.5770     1.1150    -6.9740 c3         1 PNR      -0.066400
     14 C14          4.3670     2.4930    -7.6040 c3         1 PNR      -0.021400
     15 C13          4.9950     2.5180    -8.9990 c3         1 PNR      -0.029400
     16 C12          4.7850     3.8960    -9.6290 c3         1 PNR      -0.027400
     17 C11          5.4130     3.9200   -11.0230 c3         1 PNR      -0.029400
     18 C10          5.2030     5.2990   -11.6540 c3         1 PNR      -0.028400
     19 C9           5.8310     5.3230   -13.0480 c3         1 PNR      -0.029400
     20 C8           5.6220     6.7020   -13.6780 c3         1 PNR      -0.029400
     21 C7           6.2490     6.7260   -15.0730 c3         1 PNR      -0.029400
     22 C6           6.0400     8.1040   -15.7020 c3         1 PNR      -0.029400
     23 C5           6.6680     8.1290   -17.0980 c3         1 PNR      -0.029400
     24 C4           6.4580     9.5070   -17.7270 c3         1 PNR      -0.029400
     25 C3           7.0860     9.5320   -19.1230 c3         1 PNR      -0.030400
     26 C2           6.8750    10.9100   -19.7520 c3         1 PNR      -0.028400
     27 C1           7.5030    10.9340   -21.1470 c3         1 PNR       0.005900
     28 H1           3.8800    -0.0120    -0.3410 ha         1 PNR       0.134000
     29 H2           5.1170    -0.0210    -2.4740 ha         1 PNR       0.125000
     30 H3           0.1820    -0.0120    -2.4770 ha         1 PNR       0.134000
     31 H4           1.4110    -0.0220    -4.6140 ha         1 PNR       0.125000
     32 H5           4.1080     0.3600    -7.5940 hc         1 PNR       0.038700
     33 H6           5.6380     0.9110    -6.8960 hc         1 PNR       0.038700
     34 H7           4.8350     3.2480    -6.9840 hc         1 PNR       0.031200
     35 H8           3.3060     2.6970    -7.6810 hc         1 PNR       0.031200
     36 H9           6.0560     2.3140    -8.9210 hc         1 PNR       0.014200
     37 H10          4.5270     1.7620    -9.6190 hc         1 PNR       0.014200
     38 H11          3.7240     4.1000    -9.7060 hc         1 PNR       0.017700
     39 H12          5.2530     4.6510    -9.0090 hc         1 PNR       0.017700
     40 H13          6.4740     3.7160   -10.9450 hc         1 PNR       0.014700
     41 H14          4.9440     3.1650   -11.6430 hc         1 PNR       0.014700
     42 H15          4.1420     5.5030   -11.7320 hc         1 PNR       0.015700
     43 H16          5.6710     6.0540   -11.0340 hc         1 PNR       0.015700
     44 H17          6.8920     5.1180   -12.9710 hc         1 PNR       0.014700
     45 H18          5.3630     4.5680   -13.6680 hc         1 PNR       0.014700
     46 H19          6.0910     7.4570   -13.0590 hc         1 PNR       0.014700
     47 H20          4.5610     6.9070   -13.7550 hc         1 PNR       0.014700
     48 H21          5.7800     5.9710   -15.6930 hc         1 PNR       0.014700
     49 H22          7.3100     6.5210   -14.9960 hc         1 PNR       0.014700
     50 H23          4.9790     8.3090   -15.7800 hc         1 PNR       0.014700
     51 H24          6.5090     8.8590   -15.0820 hc         1 PNR       0.014700
     52 H25          7.7290     7.9250   -17.0200 hc         1 PNR       0.014700
     53 H26          6.2000     7.3730   -17.7180 hc         1 PNR       0.014700
     54 H27          5.3970     9.7110   -17.8050 hc         1 PNR       0.014700
     55 H28          6.9260    10.2620   -17.1080 hc         1 PNR       0.014700
     56 H29          8.1470     9.3280   -19.0450 hc         1 PNR       0.014700
     57 H30          6.6180     8.7770   -19.7430 hc         1 PNR       0.014700
     58 H31          5.8140    11.1140   -19.8300 hc         1 PNR       0.011700
     59 H32          7.3440    11.6660   -19.1330 hc         1 PNR       0.011700
     60 H33          7.0350    10.1790   -21.7670 hc         1 PNR       0.000033
     61 H34          8.5640    10.7310   -21.0690 hc         1 PNR       0.000033
     62 H35          7.3550    11.9100   -21.5930 hc         1 PNR       0.000033
@<TRIPOS>BOND
     1     1     2 1   
     2     2     3 1   
     3     2     4 1   
     4     4     5 ar  
     5     4     7 ar  
     6     5     6 ar  
     7     5    28 1   
     8     6     9 ar  
     9     6    29 1   
    10     7     8 ar  
    11     7    30 1   
    12     8     9 ar  
    13     8    31 1   
    14     9    10 1   
    15    10    11 1   
    16    11    12 2   
    17    11    13 1   
    18    13    14 1   
    19    13    32 1   
    20    13    33 1   
    21    14    15 1   
    22    14    34 1   
    23    14    35 1   
    24    15    16 1   
    25    15    36 1   
    26    15    37 1   
    27    16    17 1   
    28    16    38 1   
    29    16    39 1   
    30    17    18 1   
    31    17    40 1   
    32    17    41 1   
    33    18    19 1   
    34    18    42 1   
    35    18    43 1   
    36    19    20 1   
    37    19    44 1   
    38    19    45 1   
    39    20    21 1   
    40    20    46 1   
    41    20    47 1   
    42    21    22 1   
    43    21    48 1   
    44    21    49 1   
    45    22    23 1   
    46    22    50 1   
    47    22    51 1   
    48    23    24 1   
    49    23    52 1   
    50    23    53 1   
    51    24    25 1   
    52    24    54 1   
    53    24    55 1   
    54    25    26 1   
    55    25    56 1   
    56    25    57 1   
    57    26    27 1   
    58    26    58 1   
    59    26    59 1   
    60    27    60 1   
    61    27    61 1   
    62    27    62 1   
@<TRIPOS>SUBSTRUCTURE
     1 PNR         1 TEMP              0 ****  ****    0 ROOT
