@<TRIPOS>MOLECULE
molecule
   43    42     1     0     0
SMALL
bcc


@<TRIPOS>ATOM
      1 O23          0.0000     0.0000     0.0000 o          1 PNS      -0.910500
      2 P24          1.6100     0.0000     0.0000 p5         1 PNS       1.153900
      3 O25          2.1460     0.0000     1.5180 o          1 PNS      -0.910500
      4 O26          2.1030     1.2080    -0.6980 o          1 PNS      -0.910500
      5 O27          2.1470    -1.3150    -0.7580 os         1 PNS      -0.550200
      6 C28          3.5740    -1.2570    -0.7240 c3         1 PNS       0.166400
      7 C29          4.1510    -2.4850    -1.4320 c3         1 PNS      -0.065000
      8 C30          3.6740    -3.7530    -0.7210 c3         1 PNS      -0.069100
      9 C31          3.6760    -2.5060    -2.8850 c3         1 PNS      -0.069100
     10 C32          5.6790    -2.4230    -1.3960 c3         1 PNS       0.090100
     11 O33          6.1290    -1.3140    -2.1750 oh         1 PNS      -0.548800
     12 C34          6.1420    -2.2580     0.0290 c          1 PNS       0.642100
     13 O35          6.6180    -1.2030     0.3930 o          1 PNS      -0.573100
     14 N36          6.0250    -3.2790     0.8980 ns         1 PNS      -0.601900
     15 C37          6.5490    -3.1460     2.2600 c3         1 PNS       0.129000
     16 C38          6.2910    -4.4390     3.0350 c3         1 PNS      -0.174400
     17 C39          6.8280    -4.3020     4.4360 c          1 PNS       0.664100
     18 O40          7.3650    -3.2700     4.7800 o          1 PNS      -0.587100
     19 N41          6.7120    -5.3250     5.3060 ns         1 PNS      -0.600900
     20 C42          7.2360    -5.1920     6.6670 c3         1 PNS       0.130000
     21 C43          6.9780    -6.4840     7.4420 c3         1 PNS       0.021700
     22 S44          7.6260    -6.3190     9.1280 sh         1 PNS      -0.413900
     23 H282         3.9110    -1.2410     0.3050 h1         1 PNS       0.059700
     24 H281         3.9110    -0.3580    -1.2280 h1         1 PNS       0.059700
     25 H303         3.5960    -3.5640     0.3430 hc         1 PNS       0.027200
     26 H302         2.7050    -4.0420    -1.1090 hc         1 PNS       0.027200
     27 H301         4.3840    -4.5530    -0.8940 hc         1 PNS       0.027200
     28 H313         3.8670    -1.5420    -3.3420 hc         1 PNS       0.027200
     29 H312         2.6130    -2.7140    -2.9150 hc         1 PNS       0.027200
     30 H311         4.2100    -3.2760    -3.4290 hc         1 PNS       0.027200
     31 H32          6.0870    -3.3390    -1.8040 h1         1 PNS       0.002700
     32 H33          6.9730    -1.5120    -2.5460 ho         1 PNS       0.371000
     33 H36          5.6180    -4.1440     0.6020 hn         1 PNS       0.305500
     34 H372         6.0540    -2.3210     2.7580 h1         1 PNS       0.071700
     35 H371         7.6150    -2.9560     2.2200 h1         1 PNS       0.071700
     36 H382         6.7870    -5.2630     2.5370 hc         1 PNS       0.060700
     37 H381         5.2250    -4.6290     3.0750 hc         1 PNS       0.060700
     38 H41          6.2680    -6.1750     5.0230 hn         1 PNS       0.306500
     39 H422         8.3020    -5.0020     6.6270 h1         1 PNS       0.067200
     40 H421         6.7410    -4.3670     7.1650 h1         1 PNS       0.067200
     41 H431         7.4740    -7.3090     6.9440 h1         1 PNS       0.057200
     42 H432         5.9120    -6.6750     7.4820 h1         1 PNS       0.057200
     43 H44          7.4400    -7.4560     9.7880 hs         1 PNS       0.206800
@<TRIPOS>BOND
     1     1     2 1
     2     2     3 1
     3     2     4 1
     4     2     5 1
     5     5     6 1
     6     6     7 1
     7     6    23 1
     8     6    24 1
     9     7     8 1
    10     7     9 1
    11     7    10 1
    12     8    25 1
    13     8    26 1
    14     8    27 1
    15     9    28 1
    16     9    29 1
    17     9    30 1
    18    10    11 1
    19    10    12 1
    20    10    31 1
    21    11    32 1
    22    12    13 2
    23    12    14 1
    24    14    15 1
    25    14    33 1
    26    15    16 1
    27    15    34 1
    28    15    35 1
    29    16    17 1
    30    16    36 1
    31    16    37 1
    32    17    18 2
    33    17    19 1
    34    19    20 1
    35    19    38 1
    36    20    21 1
    37    20    39 1
    38    20    40 1
    39    21    22 1
    40    21    41 1
    41    21    42 1
    42    22    43 1
@<TRIPOS>SUBSTRUCTURE
     1 PNS         1 TEMP              0 ****  ****    0 ROOT
