@<TRIPOS>MOLECULE
PNS
   43    42     1     0     0
SMALL
bcc


@<TRIPOS>ATOM
      1 O23         2.0750   -5.6770    1.9550 o         1 PNS     -0.921167
      2 P24         3.1260   -4.6230    2.0240 p5        1 PNS      1.340900
      3 O25         4.5470   -4.9820    1.6210 o         1 PNS     -0.921167
      4 O26         3.2290   -3.7300    3.2350 o         1 PNS     -0.921167
      5 O27         2.6800   -3.5330    0.7740 os        1 PNS     -0.560200
      6 C28         3.4950   -2.4350    0.6570 c3        1 PNS      0.227400
      7 C29         4.2180   -2.3780   -0.7240 c3        1 PNS     -0.111000
      8 C30         4.4340   -3.7790   -1.2720 c3        1 PNS     -0.091600
      9 C31         3.3250   -1.5990   -1.6840 c3        1 PNS     -0.091600
     10 C32         5.5630   -1.6310   -0.6410 c3        1 PNS      0.094100
     11 O33         5.5180   -0.4900    0.1990 oh        1 PNS     -0.616800
     12 C34         6.7810   -2.4990   -0.2610 c         1 PNS      0.621100
     13 O35         7.8350   -2.3810   -0.9380 o         1 PNS     -0.697100
     14 N36         6.7050   -3.2850    0.8550 n         1 PNS     -0.540900
     15 C37         7.8180   -4.1130    1.2410 c3        1 PNS      0.114000
     16 C38         7.4610   -5.1310    2.3230 c3        1 PNS     -0.175400
     17 C39         7.2860   -4.4590    3.6740 c         1 PNS      0.657100
     18 O40         8.2400   -4.4600    4.5010 o         1 PNS     -0.732100
     19 N41         6.0950   -3.8450    3.9360 n         1 PNS     -0.535900
     20 C42         5.8370   -3.2010    5.1930 c3        1 PNS      0.112000
     21 C43         4.5680   -3.6870    5.8780 c3        1 PNS     -0.011300
     22 S44         4.3290   -2.8980    7.4520 sh        1 PNS     -0.456900
     23 H282        2.8750   -1.4920    0.7420 h1        1 PNS     -0.003800
     24 H281        4.2460   -2.4180    1.4980 h1        1 PNS     -0.003800
     25 H303        4.5320   -4.5090   -0.4170 hc        1 PNS      0.034200
     26 H302        5.3390   -3.8210   -1.9240 hc        1 PNS      0.034200
     27 H301        3.5470   -4.0950   -1.8710 hc        1 PNS      0.034200
     28 H313        3.2800   -0.5240   -1.3840 hc        1 PNS      0.034200
     29 H312        3.7150   -1.6610   -2.7280 hc        1 PNS      0.034200
     30 H311        2.2940   -2.0270   -1.6560 hc        1 PNS      0.034200
     31 H32         5.8050   -1.1980   -1.6580 h1        1 PNS      0.063700
     32 H33         5.2670   -0.7860    1.0840 ho        1 PNS      0.419000
     33 H36         5.7850   -3.6310    1.1500 hn        1 PNS      0.400500
     34 H372        8.6520   -3.4460    1.6030 h1        1 PNS      0.022200
     35 H371        8.2130   -4.6750    0.3430 h1        1 PNS      0.022200
     36 H382        8.3060   -5.8590    2.4120 hc        1 PNS      0.095200
     37 H381        6.5150   -5.6830    2.0390 hc        1 PNS      0.095200
     38 H41         5.2840   -3.9870    3.3200 hn        1 PNS      0.411500
     39 H422        5.7310   -2.0930    5.0030 h1        1 PNS      0.031700
     40 H421        6.7190   -3.3500    5.8830 h1        1 PNS      0.031700
     41 H431        3.6660   -3.4290    5.2400 h1        1 PNS      0.128700
     42 H432        4.5790   -4.7930    6.0120 h1        1 PNS      0.128700
     43 H44         5.4740   -3.2040    8.0300 hs        1 PNS      0.172800
@<TRIPOS>BOND
     1    1    2 1   
     2    2    3 1   
     3    2    4 1   
     4    2    5 1   
     5    5    6 1   
     6    6    7 1   
     7    6   23 1   
     8    6   24 1   
     9    7    8 1   
    10    7    9 1   
    11    7   10 1   
    12    8   25 1   
    13    8   26 1   
    14    8   27 1   
    15    9   28 1   
    16    9   29 1   
    17    9   30 1   
    18   10   11 1   
    19   10   12 1   
    20   10   31 1   
    21   11   32 1   
    22   12   13 2   
    23   12   14 1   
    24   14   15 1   
    25   14   33 1   
    26   15   16 1   
    27   15   34 1   
    28   15   35 1   
    29   16   17 1   
    30   16   36 1   
    31   16   37 1   
    32   17   18 2   
    33   17   19 1   
    34   19   20 1   
    35   19   38 1   
    36   20   21 1   
    37   20   39 1   
    38   20   40 1   
    39   21   22 1   
    40   21   41 1   
    41   21   42 1   
    42   22   43 1   
@<TRIPOS>SUBSTRUCTURE
     1 PNS         1 TEMP              0 ****  ****    0 ROOT
