@<TRIPOS>MOLECULE
PNT
   51    52     1     0     0
SMALL
bcc


@<TRIPOS>ATOM
      1 C1           0.0000     0.0000     0.0000 ca         1 PNT       0.217600
      2 C2           1.3890     0.0000     0.0000 ca         1 PNT      -0.152500
      3 C3           2.0800     0.0000     1.1920 ca         1 PNT      -0.023000
      4 C4           1.3830    -0.0010     2.4010 ca         1 PNT      -0.280900
      5 C5          -0.0130    -0.0020     2.3980 ca         1 PNT      -0.023000
      6 C6          -0.6980    -0.0010     1.2010 ca         1 PNT      -0.152500
      7 C7          -2.1040     0.0050    -1.1030 c3         1 PNT       0.202400
      8 C8          -2.6880     0.0130    -2.5180 c3         1 PNT      -0.031400
      9 C9           2.1200    -0.0020     3.6830 ce         1 PNT       0.217300
     10 C10         -4.2160     0.0110    -2.4400 c3         1 PNT      -0.015400
     11 C1'         -8.2250     0.0260    -5.2050 ca         1 PNT       0.217600
     12 C2'         -8.8200     0.0320    -6.4610 ca         1 PNT      -0.152500
     13 C3'        -10.1930     0.0260    -6.5750 ca         1 PNT      -0.023000
     14 C4'        -10.9860     0.0140    -5.4280 ca         1 PNT      -0.280900
     15 C5'        -10.3860     0.0070    -4.1670 ca         1 PNT      -0.023000
     16 C6'         -9.0120     0.0130    -4.0610 ca         1 PNT      -0.152500
     17 C7'         -6.3270     0.0180    -3.7760 c3         1 PNT       0.202400
     18 C8'         -4.7990     0.0190    -3.8540 c3         1 PNT      -0.031400
     19 C9'        -12.4610     0.0080    -5.5450 ce         1 PNT       0.217300
     20 O1          -0.6780     0.0060    -1.1770 os         1 PNT      -0.281900
     21 O1'         -6.8720     0.0250    -5.0970 os         1 PNT      -0.281900
     22 N1           3.4240    -0.0030     3.6840 n2         1 PNT      -0.492100
     23 N2           1.4300    -0.0030     4.8760 nz         1 PNT       0.190900
     24 N1'        -13.0200     0.0140    -6.7230 n2         1 PNT      -0.492100
     25 N2'        -13.2440    -0.0040    -4.4110 nz         1 PNT       0.190900
     26 H2           1.9300     0.0010    -0.9390 ha         1 PNT       0.140250
     27 H3           3.1630     0.0000     1.1910 ha         1 PNT       0.097750
     28 H5          -0.5580    -0.0030     3.3340 ha         1 PNT       0.097750
     29 H6          -1.7810    -0.0010     1.1980 ha         1 PNT       0.140250
     30 H71         -2.4380    -0.8820    -0.5790 h1         1 PNT       0.004700
     31 H72         -2.4380     0.8870    -0.5700 h1         1 PNT       0.004700
     32 H81         -2.3530    -0.8680    -3.0510 hc         1 PNT       0.035700
     33 H82         -2.3550     0.9010    -3.0410 hc         1 PNT       0.035700
     34 H101        -4.5500    -0.8770    -1.9160 hc         1 PNT       0.014700
     35 H102        -4.5510     0.8920    -1.9060 hc         1 PNT       0.014700
     36 H2'         -8.2030     0.0420    -7.3520 ha         1 PNT       0.140250
     37 H3'        -10.6560     0.0310    -7.5540 ha         1 PNT       0.097750
     38 H5'        -11.0000    -0.0020    -3.2740 ha         1 PNT       0.097750
     39 H6'         -8.5450     0.0080    -3.0830 ha         1 PNT       0.140250
     40 H7'1        -6.6620    -0.8700    -3.2520 h1         1 PNT       0.004700
     41 H7'2        -6.6620     0.8990    -3.2430 h1         1 PNT       0.004700
     42 H8'1        -4.4650     0.9060    -4.3770 hc         1 PNT       0.035700
     43 H8'2        -4.4640    -0.8630    -4.3870 hc         1 PNT       0.035700
     44 HN1          3.9260    -0.0020     2.8180 hn         1 PNT       0.381400
     45 HN2          0.8550    -0.8210     4.9280 hn         1 PNT       0.220800
     46 HN3          2.0800    -0.0040     5.6370 hn         1 PNT       0.220800
     47 HN'1       -12.4530     0.0230    -7.5480 hn         1 PNT       0.381400
     48 HN'2       -14.2100    -0.0060    -4.6730 hn         1 PNT       0.220800
     49 HN'3       -13.0490     0.8100    -3.8630 hn         1 PNT       0.220800
     50 H23          0.8590     0.8170     4.9320 hn         1 PNT       0.220800
     51 H2'3       -13.0370    -0.8210    -3.8720 hn         1 PNT       0.220800
@<TRIPOS>BOND
     1     1     2 ar  
     2     1     6 ar  
     3     1    20 1   
     4     2     3 ar  
     5     2    26 1   
     6     3     4 ar  
     7     3    27 1   
     8     4     5 ar  
     9     4     9 1   
    10     5     6 ar  
    11     5    28 1   
    12     6    29 1   
    13     7     8 1   
    14     7    20 1   
    15     7    30 1   
    16     7    31 1   
    17     8    10 1   
    18     8    32 1   
    19     8    33 1   
    20     9    22 2   
    21     9    23 1   
    22    10    18 1   
    23    10    34 1   
    24    10    35 1   
    25    11    12 ar  
    26    11    16 ar  
    27    11    21 1   
    28    12    13 ar  
    29    12    36 1   
    30    13    14 ar  
    31    13    37 1   
    32    14    15 ar  
    33    14    19 1   
    34    15    16 ar  
    35    15    38 1   
    36    16    39 1   
    37    17    18 1   
    38    17    21 1   
    39    17    40 1   
    40    17    41 1   
    41    18    42 1   
    42    18    43 1   
    43    19    24 2   
    44    19    25 1   
    45    22    44 1   
    46    23    45 1   
    47    23    46 1   
    48    23    50 1   
    49    24    47 1   
    50    25    48 1   
    51    25    49 1   
    52    25    51 1   
@<TRIPOS>SUBSTRUCTURE
     1 PNT         1 TEMP              0 ****  ****    0 ROOT
