@<TRIPOS>MOLECULE
PNU
   31    33     1     0     0
SMALL
bcc


@<TRIPOS>ATOM
      1 C1         -0.1640   -0.0330    0.1910 ca        1 PNU      0.779300
      2 N2          1.1430   -0.3790   -0.0010 nb        1 PNU     -0.755000
      3 C3          1.9130   -0.5180    1.1300 ca        1 PNU      0.699200
      4 C4          1.3470   -0.3350    2.4360 ca        1 PNU     -0.440600
      5 C5         -0.0080    0.0150    2.4920 ca        1 PNU      0.569300
      6 N6         -0.7830    0.1760    1.3920 nb        1 PNU     -0.755000
      7 C7         -4.9330   -0.5330   -4.2450 ca        1 PNU     -0.065200
      8 C8         -5.2970   -1.0190   -2.9810 ca        1 PNU      0.422200
      9 N9         -4.5960   -0.6690   -1.8950 nb        1 PNU     -0.640000
     10 C10        -3.5270    0.1680   -2.0340 ca        1 PNU      0.387600
     11 C11        -3.0960    0.7030   -3.2690 ca        1 PNU     -0.187300
     12 C12        -3.8130    0.3430   -4.4070 ca        1 PNU     -0.071800
     13 C13        -3.7450    0.6270   -5.8290 cc        1 PNU     -0.180200
     14 O14        -5.5320   -0.7860   -5.4760 os        1 PNU     -0.188200
     15 C15        -4.7790   -0.0610   -6.4160 cd        1 PNU     -0.000900
     16 C16        -2.7570    0.5410   -0.7960 c3        1 PNU     -0.044900
     17 S17        -1.0740    0.1300   -1.2660 ss        1 PNU     -0.216400
     18 N18         3.2670   -0.7820    1.0020 nh        1 PNU     -0.944500
     19 CL19       -0.7200    0.2520    4.0290 cl        1 PNU     -0.145000
     20 C21        -2.9320    2.0000   -0.4610 c3        1 PNU     -0.089100
     21 HC4         1.9480   -0.4520    3.3440 ha        1 PNU      0.162000
     22 H11C       -2.2260    1.3730   -3.3210 ha        1 PNU      0.162000
     23 H13C       -3.0080    1.2630   -6.3110 ha        1 PNU      0.172000
     24 H15C       -5.1430   -0.1720   -7.4350 h4        1 PNU      0.195000
     25 H16C       -3.0790   -0.0790    0.0840 h1        1 PNU      0.121700
     26 H181        3.6130   -1.0600    0.1130 hn        1 PNU      0.428300
     27 H182        3.7200   -1.1590    1.7990 hn        1 PNU      0.428300
     28 H211       -2.5760    2.6500   -1.2970 hc        1 PNU      0.051367
     29 H212       -4.0130    2.2190   -0.2790 hc        1 PNU      0.051367
     30 H213       -2.3610    2.2590    0.4640 hc        1 PNU      0.051367
     31 HC8        -6.1560   -1.6940   -2.8330 h4        1 PNU      0.041100
@<TRIPOS>BOND
     1    1    2 ar  
     2    1    6 ar  
     3    1   17 1   
     4    2    3 ar  
     5    3    4 ar  
     6    3   18 1   
     7    4    5 ar  
     8    4   21 1   
     9    5    6 ar  
    10    5   19 1   
    11    7    8 ar  
    12    7   12 ar  
    13    7   14 1   
    14    8    9 ar  
    15    8   31 1   
    16    9   10 ar  
    17   10   11 ar  
    18   10   16 1   
    19   11   12 ar  
    20   11   22 1   
    21   12   13 1   
    22   13   15 2   
    23   13   23 1   
    24   14   15 1   
    25   15   24 1   
    26   16   17 1   
    27   16   20 1   
    28   16   25 1   
    29   18   26 1   
    30   18   27 1   
    31   20   28 1   
    32   20   29 1   
    33   20   30 1   
@<TRIPOS>SUBSTRUCTURE
     1 PNU         1 TEMP              0 ****  ****    0 ROOT
