@<TRIPOS>MOLECULE
PNV
   42    44     1     0     0
SMALL
bcc


@<TRIPOS>ATOM
      1 C24        -0.7980    1.5780   -0.3120 ca        1 PNV     -0.132000
      2 C23         0.5650    1.6030   -0.6040 ca        1 PNV     -0.114000
      3 C22         1.4500    0.7820    0.0980 ca        1 PNV     -0.120000
      4 C21         0.9790   -0.0700    1.0970 ca        1 PNV     -0.114000
      5 C20        -0.3810   -0.1170    1.4010 ca        1 PNV     -0.132000
      6 C19        -1.2550    0.7140    0.6890 ca        1 PNV      0.041100
      7 O1         -2.5920    0.7380    1.1010 os        1 PNV     -0.294900
      8 C2         -3.5220    0.3610    0.1100 c3        1 PNV      0.071400
      9 C3         -3.7380   -1.1440    0.1560 c         1 PNV      0.507100
     10 O18        -3.3860   -1.9320    1.0200 o         1 PNV     -0.418100
     11 N4         -4.4710   -1.7390   -1.0160 n4        1 PNV     -0.679800
     12 C5         -5.8000   -1.1410   -1.2330 cy        1 PNV     -0.080500
     13 C6         -6.7170   -1.9520   -2.2530 c         1 PNV      0.672500
     14 O17        -7.1350   -3.0930   -2.1750 o         1 PNV     -0.518500
     15 C8         -5.8570   -0.0120   -2.3240 cy        1 PNV      0.147800
     16 N7         -6.8550   -0.8080   -3.0740 n         1 PNV     -0.282800
     17 S11        -4.3450    0.0850   -3.2950 ss        1 PNV     -0.460200
     18 C10        -5.1290   -0.6540   -4.8260 c3        1 PNV      0.131100
     19 C12        -4.8480    0.2760   -5.9740 c3        1 PNV     -0.103100
     20 C15        -4.5060   -2.0090   -5.0330 c3        1 PNV     -0.103100
     21 C9         -6.6420   -0.7520   -4.5030 c3        1 PNV     -0.134300
     22 C13        -7.4130    0.5230   -5.1370 c         1 PNV      0.959600
     23 O14        -7.9580    0.2640   -6.2290 o         1 PNV     -0.770800
     24 O16        -7.3550    1.5960   -4.5000 o         1 PNV     -0.770800
     25 H24        -1.4980    2.2360   -0.8470 ha        1 PNV      0.153500
     26 H23         0.9420    2.2790   -1.3860 ha        1 PNV      0.147000
     27 H22         2.5250    0.8110   -0.1370 ha        1 PNV      0.145000
     28 H21         1.6830   -0.7100    1.6530 ha        1 PNV      0.147000
     29 H20        -0.7690   -0.7760    2.1920 ha        1 PNV      0.153500
     30 H21A       -4.4870    0.8630    0.4110 h1        1 PNV      0.117200
     31 H22A       -3.2140    0.6820   -0.9240 h1        1 PNV      0.117200
     32 HN4        -4.5790   -2.7530   -0.8860 hn        1 PNV      0.473800
     33 H5         -6.2970   -0.8890   -0.2660 hx        1 PNV      0.131700
     34 H8         -6.2420    0.9880   -2.0220 h2        1 PNV      0.169700
     35 H121       -5.1130    1.3300   -5.6990 hc        1 PNV      0.059867
     36 H122       -5.4890   -0.0130   -6.8480 hc        1 PNV      0.059867
     37 H123       -3.7730    0.2280   -6.2690 hc        1 PNV      0.059867
     38 H151       -3.3960   -1.9330   -5.1280 hc        1 PNV      0.059867
     39 H152       -4.9070   -2.4590   -5.9780 hc        1 PNV      0.059867
     40 H153       -4.7520   -2.6980   -4.1880 hc        1 PNV      0.059867
     41 H9         -7.0800   -1.6670   -4.9880 h1        1 PNV      0.109700
     42 H42        -3.9110   -1.5450   -1.9000 hn        1 PNV      0.473800
@<TRIPOS>BOND
     1    1    2 ar
     2    1    6 ar
     3    1   25 1
     4    2    3 ar
     5    2   26 1
     6    3    4 ar
     7    3   27 1
     8    4    5 ar
     9    4   28 1
    10    5    6 ar
    11    5   29 1
    12    6    7 1
    13    7    8 1
    14    8    9 1
    15    8   30 1
    16    8   31 1
    17    9   10 2
    18    9   11 1
    19   11   12 1
    20   11   32 1
    21   11   42 1
    22   12   13 1
    23   12   15 1
    24   12   33 1
    25   13   14 2
    26   13   16 1
    27   15   16 1
    28   15   17 1
    29   15   34 1
    30   16   21 1
    31   17   18 1
    32   18   19 1
    33   18   20 1
    34   18   21 1
    35   19   35 1
    36   19   36 1
    37   19   37 1
    38   20   38 1
    39   20   39 1
    40   20   40 1
    41   21   22 1
    42   21   41 1
    43   22   23 1
    44   22   24 1
@<TRIPOS>SUBSTRUCTURE
     1 PNV         1 TEMP              0 ****  ****    0 ROOT
