@<TRIPOS>MOLECULE
PNX
   38    39     1     0     0
SMALL
bcc


@<TRIPOS>ATOM
      1 CAA         0.0930    0.3680    0.1500 c3        1 PNX     -0.205100
      2 CAM         1.5290   -0.0490    0.1950 c         1 PNX      0.564100
      3 OAD         2.0680   -0.4390    1.2360 o         1 PNX     -0.530100
      4 CAJ         2.2520    0.0400   -1.1190 c3        1 PNX     -0.181400
      5 CAH         3.7500   -0.1040   -0.9720 c3        1 PNX     -0.072400
      6 CAI         4.4310   -0.0600   -2.3220 c3        1 PNX     -0.100400
      7 CAK         5.9440   -0.1750   -2.1360 c3        1 PNX      0.096000
      8 N1          6.7030   -0.1540   -3.3770 n         1 PNX     -0.482400
      9 C6          7.1250   -1.3720   -3.9500 c         1 PNX      0.764100
     10 O6          6.8780   -2.4630   -3.4030 o         1 PNX     -0.630500
     11 C5          7.8620   -1.2200   -5.1920 cc        1 PNX     -0.350200
     12 N7          8.4470   -2.1670   -6.0390 na        1 PNX     -0.148900
     13 CAB         8.4640   -3.5830   -5.8570 c3        1 PNX      0.009600
     14 C8          9.0160   -1.4460   -7.0870 cc        1 PNX      0.443400
     15 N9          8.8380   -0.1010   -6.9780 nd        1 PNX     -0.685000
     16 C4          8.1120    0.0590   -5.7870 cd        1 PNX      0.485200
     17 N3          7.6540    1.2220   -5.1860 n         1 PNX     -0.418300
     18 CAC         7.8980    2.5040   -5.7930 c3        1 PNX      0.090300
     19 C2          6.9270    1.1140   -3.9750 c         1 PNX      0.815500
     20 O2          6.4930    2.1520   -3.4280 o         1 PNX     -0.640500
     21 HAA1        0.0350    1.4770    0.0250 hc        1 PNX      0.063367
     22 HAA2       -0.4310    0.0860    1.0950 hc        1 PNX      0.063367
     23 HAA3       -0.4220   -0.1170   -0.7130 hc        1 PNX      0.063367
     24 HAJ1        2.0060    1.0220   -1.6030 hc        1 PNX      0.065700
     25 HAJ2        1.8540   -0.7710   -1.7870 hc        1 PNX      0.065700
     26 HAH1        4.1400    0.7210   -0.3180 hc        1 PNX      0.057700
     27 HAH2        3.9820   -1.0710   -0.4520 hc        1 PNX      0.057700
     28 HAI1        4.1890    0.9040   -2.8420 hc        1 PNX      0.053200
     29 HAI2        4.0560   -0.9000   -2.9640 hc        1 PNX      0.053200
     30 HAK1        6.2990    0.6860   -1.4980 h1        1 PNX      0.079200
     31 HAK2        6.1820   -1.1430   -1.6060 h1        1 PNX      0.079200
     32 HAB1        7.9050   -3.8470   -4.9160 h1        1 PNX      0.071367
     33 HAB2        9.5250   -3.9430   -5.7730 h1        1 PNX      0.071367
     34 HAB3        7.9740   -4.0830   -6.7350 h1        1 PNX      0.071367
     35 H8          9.5520   -1.9300   -7.9130 h5        1 PNX      0.071100
     36 HAC1        7.4770    3.3170   -5.1430 h1        1 PNX      0.063367
     37 HAC2        9.0040    2.6550   -5.9150 h1        1 PNX      0.063367
     38 HAC3        7.4100    2.5400   -6.8040 h1        1 PNX      0.063367
@<TRIPOS>BOND
     1    1    2 1
     2    1   21 1
     3    1   22 1
     4    1   23 1
     5    2    3 2
     6    2    4 1
     7    4    5 1
     8    4   24 1
     9    4   25 1
    10    5    6 1
    11    5   26 1
    12    5   27 1
    13    6    7 1
    14    6   28 1
    15    6   29 1
    16    7    8 1
    17    7   30 1
    18    7   31 1
    19    8    9 1
    20    8   19 1
    21    9   10 2
    22    9   11 1
    23   11   12 1
    24   11   16 2
    25   12   13 1
    26   12   14 1
    27   13   32 1
    28   13   33 1
    29   13   34 1
    30   14   15 2
    31   14   35 1
    32   15   16 1
    33   16   17 1
    34   17   18 1
    35   17   19 1
    36   18   36 1
    37   18   37 1
    38   18   38 1
    39   19   20 2
@<TRIPOS>SUBSTRUCTURE
     1 PNX         1 TEMP              0 ****  ****    0 ROOT
