@<TRIPOS>MOLECULE
molecule
   40    39     1     0     0
SMALL
bcc


@<TRIPOS>ATOM
      1 CAA          0.0000     0.0000     0.0000 c3         1 PNY       0.148400
      2 CAB         -0.0010    -1.2500     2.1640 c3         1 PNY      -0.079100
      3 OAC         -3.9790    -5.7720    -0.7120 o          1 PNY      -0.593100
      4 OAD         -3.0190    -0.9620    -0.4780 o          1 PNY      -0.578100
      5 OAE          1.4280     0.0000     0.0000 oh         1 PNY      -0.619800
      6 CAF         -0.5110     0.0000     1.4420 c3         1 PNY      -0.057000
      7 SAG         -4.4250   -11.0320    -0.0850 sh         1 PNY      -0.398900
      8 CAH         -3.7000    -9.6540     0.8440 c3         1 PNY       0.013700
      9 CAI         -0.0000     1.2500     2.1640 c3         1 PNY      -0.079100
     10 CAJ         -3.9270    -8.3470     0.0810 c3         1 PNY       0.129000
     11 CAK         -3.0480    -3.5270     0.3540 c3         1 PNY       0.125000
     12 CAL         -2.8210    -4.8330     1.1180 c3         1 PNY      -0.178400
     13 NAM         -3.3420    -7.2330     0.8300 ns         1 PNY      -0.589900
     14 CAO         -3.4220    -5.9790     0.3460 c          1 PNY       0.662100
     15 CAP         -2.5430    -1.1590     0.6190 c          1 PNY       0.628100
     16 CAQ         -2.0410    -0.0000     1.4420 c3         1 PNY       0.085100
     17 OAR         -2.5170     1.2250     0.8800 oh         1 PNY      -0.570800
     18 HAA         -0.3610     0.8840    -0.5110 h1         1 PNY       0.040700
     19 HAAA        -0.3610    -0.8850    -0.5110 h1         1 PNY       0.040700
     20 HAB         -0.7060    -1.5350     2.9340 hc         1 PNY       0.040867
     21 HABA         0.1040    -2.0600     1.4530 hc         1 PNY       0.040867
     22 HABB         0.9610    -1.0390     2.6150 hc         1 PNY       0.040867
     23 HOAE         1.7430    -0.0120    -0.8890 ho         1 PNY       0.405000
     24 HSAG        -4.2460   -12.1620     0.5880 hs         1 PNY       0.220800
     25 HAH         -4.1680    -9.5890     1.8180 h1         1 PNY       0.058200
     26 HAHA        -2.6360    -9.8200     0.9650 h1         1 PNY       0.058200
     27 HAI          1.0680     1.1630     2.3240 hc         1 PNY       0.040867
     28 HAIA        -0.5020     1.3450     3.1190 hc         1 PNY       0.040867
     29 HAIB        -0.2050     2.1250     1.5590 hc         1 PNY       0.040867
     30 HAJ         -4.9910    -8.1810    -0.0410 h1         1 PNY       0.070700
     31 HAJA        -3.4590    -8.4120    -0.8940 h1         1 PNY       0.070700
     32 HAK         -2.5790    -3.5920    -0.6200 h1         1 PNY       0.072200
     33 HAKA        -4.1120    -3.3600     0.2320 h1         1 PNY       0.072200
     34 HAL         -1.7570    -4.9990     1.2410 hc         1 PNY       0.061700
     35 HALA        -3.2910    -4.7680     2.0920 hc         1 PNY       0.061700
     36 HNAM        -2.8820    -7.4040     1.7030 hn         1 PNY       0.310500
     37 HNAN        -2.0720    -2.5740     2.0130 hn         1 PNY       0.311500
     38 HAQ         -2.4020    -0.0960     2.4580 h1         1 PNY       0.043700
     39 HOAR        -3.3150     1.4800     1.3130 ho         1 PNY       0.407000
     40 NAN         -2.4620    -2.4130     1.1050 ns         1 PNY      -0.599900
@<TRIPOS>BOND
     1     1     5 1
     2     1     6 1
     3     2     6 1
     4     3    14 2
     5     4    15 2
     6     6     9 1
     7     6    16 1
     8     7     8 1
     9     8    10 1
    10    10    13 1
    11    11    12 1
    12    11    40 1
    13    12    14 1
    14    13    14 1
    15    40    15 1
    16    15    16 1
    17    16    17 1
    18     1    18 1
    19     1    19 1
    20     2    20 1
    21     2    21 1
    22     2    22 1
    23     5    23 1
    24     7    24 1
    25     8    25 1
    26     8    26 1
    27     9    27 1
    28     9    28 1
    29     9    29 1
    30    10    30 1
    31    10    31 1
    32    11    32 1
    33    11    33 1
    34    12    34 1
    35    12    35 1
    36    13    36 1
    37    40    37 1
    38    16    38 1
    39    17    39 1
@<TRIPOS>SUBSTRUCTURE
     1 PNY         1 TEMP              0 ****  ****    0 ROOT
