@<TRIPOS>MOLECULE
molecule
   27    27     1     0     0
SMALL
bcc


@<TRIPOS>ATOM
      1 N            0.0000     0.0000     0.0000 nz         1 PO0      -0.808600
      2 CA           1.4690     0.0000     0.0000 c3         1 PO0       0.106500
      3 C            1.9780     0.0000     1.4420 c3         1 PO0      -0.112400
      4 CB           1.9780     1.2490    -0.7220 c3         1 PO0      -0.051100
      5 CG           1.4750     1.2490    -2.1420 ca         1 PO0      -0.156300
      6 CD1          0.2680     1.8470    -2.4480 ca         1 PO0      -0.135000
      7 CD2          2.2250     0.6560    -3.1400 ca         1 PO0      -0.135000
      8 CE1         -0.1930     1.8460    -3.7510 ca         1 PO0      -0.106500
      9 CE2          1.7630     0.6520    -4.4420 ca         1 PO0      -0.106500
     10 CZ           0.5550     1.2490    -4.7490 ca         1 PO0      -0.098000
     11 CM           1.4690    -1.2490     2.1630 c3         1 PO0      -0.117100
     12 H           -0.3340    -0.0830    -0.9400 hn         1 PO0       0.455133
     13 HN2         -0.3340     0.8550     0.3980 hn         1 PO0       0.455133
     14 HA           1.8300    -0.8850    -0.5100 hx         1 PO0       0.117700
     15 HC1          3.0610     0.0000     1.4420 hc         1 PO0       0.086200
     16 HC2          1.6170     0.8840     1.9530 hc         1 PO0       0.086200
     17 HB1          3.0610     1.2500    -0.7230 hc         1 PO0       0.089700
     18 HB2          1.6170     2.1340    -0.2120 hc         1 PO0       0.089700
     19 HD1         -0.3190     2.3140    -1.6670 ha         1 PO0       0.129000
     20 HD2          3.1720     0.1870    -2.9000 ha         1 PO0       0.129000
     21 HE1         -1.1390     2.3140    -3.9910 ha         1 PO0       0.153500
     22 HE2          2.3500     0.1860    -5.2240 ha         1 PO0       0.153500
     23 HZ           0.1930     1.2480    -5.7700 ha         1 PO0       0.157000
     24 HM1          0.4700    -1.0660     2.5420 hc         1 PO0       0.055033
     25 HM2          1.4450    -2.0820     1.4710 hc         1 PO0       0.055033
     26 HM3          2.1300    -1.4850     2.9880 hc         1 PO0       0.055033
     27 HN3         -0.3340    -0.7700     0.5450 hn         1 PO0       0.455133
@<TRIPOS>BOND
     1     1     2 1
     2     1    12 1
     3     1    13 1
     4     2     3 1
     5     2     4 1
     6     2    14 1
     7     3    11 1
     8     3    15 1
     9     3    16 1
    10     4     5 1
    11     4    17 1
    12     4    18 1
    13     5     6 ar
    14     5     7 ar
    15     6     8 ar
    16     6    19 1
    17     7     9 ar
    18     7    20 1
    19     8    10 ar
    20     8    21 1
    21     9    10 ar
    22     9    22 1
    23    10    23 1
    24    11    24 1
    25    11    25 1
    26    11    26 1
    27    27     1 1
@<TRIPOS>SUBSTRUCTURE
     1 PO0         1 TEMP              0 ****  ****    0 ROOT
