@<TRIPOS>MOLECULE
PO1
   60    63     1     0     0
SMALL
bcc


@<TRIPOS>ATOM
      1 C1           0.0000     0.0000     0.0000 ca         1 PO1      -0.006900
      2 C2           1.3910     0.0000     0.0000 ca         1 PO1       0.067100
      3 O2          -1.1500     2.1330    -0.3270 o          1 PO1      -0.510300
      4 S1          -0.8930     1.4650    -1.5550 s6         1 PO1       1.267400
      5 O1          -1.7610     1.4510    -2.6800 o          1 PO1      -0.510300
      6 N1           0.5550     2.0440    -2.1100 nz         1 PO1      -0.180500
      7 O3          -0.6860     0.0060    -1.1740 os         1 PO1      -0.286800
      8 C3           2.0740     0.0000     1.2030 ca         1 PO1      -0.195000
      9 C4           1.3830    -0.0020     2.4070 ca         1 PO1      -0.002300
     10 C5           0.0020     0.0010     2.4090 ca         1 PO1      -0.064300
     11 C6          -0.6790     0.0070     1.1980 ca         1 PO1      -0.002000
     12 O4           2.0760     0.0040    -1.1750 os         1 PO1      -0.346900
     13 C7           3.4660     0.0090    -0.8430 c3         1 PO1       0.234700
     14 C8           2.1770    -0.0170     3.6810 c3         1 PO1      -0.002400
     15 C9           1.3170     0.4870     4.8480 c3         1 PO1      -0.059700
     16 C10          0.0330    -0.3430     4.8780 c3         1 PO1      -0.020400
     17 C11         -0.8130     0.0430     3.6660 c3         1 PO1       0.030900
     18 C12          3.4580     0.7960     3.5620 c3         1 PO1      -0.023400
     19 C13          4.2490     0.7580     4.8840 c3         1 PO1      -0.003400
     20 C14          3.3400     1.2770     5.9780 c3         1 PO1      -0.108000
     21 C15          2.1380     0.3020     6.1100 c3         1 PO1      -0.034700
     22 C16          2.8320     2.6710     5.6050 c3         1 PO1      -0.011100
     23 C17          3.9100     1.3020     7.3920 c3         1 PO1       0.186100
     24 C18          2.7010     1.0450     8.3260 c3         1 PO1      -0.030400
     25 C19          1.4790     0.7920     7.4000 c3         1 PO1      -0.016400
     26 O5           4.4910     2.5790     7.6690 os         1 PO1      -0.404500
     27 S2           5.7010     2.3280     8.5570 s6         1 PO1       1.270400
     28 O6           5.3270     1.2720     9.4300 o          1 PO1      -0.502800
     29 O7           6.1530     3.6130     8.9650 o          1 PO1      -0.502800
     30 N2           6.9010     1.7130     7.5960 nz         1 PO1      -0.181500
     31 HN11         0.3940     2.8420    -2.6920 hn         1 PO1       0.327467
     32 HN12         1.0170     1.3320    -2.6410 hn         1 PO1       0.327467
     33 H3           3.1570    -0.0000     1.2060 ha         1 PO1       0.154000
     34 H6          -1.7620     0.0070     1.1970 ha         1 PO1       0.141000
     35 H71          4.0550    -0.0400    -1.7510 h1         1 PO1       0.017033
     36 H72          3.7060     0.9190    -0.3060 h1         1 PO1       0.017033
     37 H73          3.6920    -0.8480    -0.2200 h1         1 PO1       0.017033
     38 H8           2.4530    -1.0430     3.8890 hc         1 PO1       0.051700
     39 H9           1.0800     1.5340     4.7090 hc         1 PO1       0.059700
     40 H101         0.2890    -1.3930     4.8100 hc         1 PO1       0.035700
     41 H102        -0.5170    -0.1090     5.7820 hc         1 PO1       0.035700
     42 H111        -1.1970     1.0470     3.8060 hc         1 PO1       0.040700
     43 H112        -1.6400    -0.6500     3.5760 hc         1 PO1       0.040700
     44 H121         3.2070     1.8230     3.3270 hc         1 PO1       0.026700
     45 H122         4.0700     0.3810     2.7700 hc         1 PO1       0.026700
     46 H131         5.1250     1.3910     4.8050 hc         1 PO1       0.004200
     47 H132         4.5440    -0.2610     5.1060 hc         1 PO1       0.004200
     48 H15          2.4790    -0.7220     6.2100 hc         1 PO1       0.047700
     49 H161         3.6640     3.3650     5.5810 hc         1 PO1       0.027700
     50 H162         2.3620     2.6360     4.6300 hc         1 PO1       0.027700
     51 H163         2.1090     3.0010     6.3420 hc         1 PO1       0.027700
     52 H17          4.6460     0.5160     7.5110 h1         1 PO1       0.006700
     53 H181         2.5220     1.9140     8.9470 hc         1 PO1       0.051200
     54 H182         2.8870     0.1730     8.9410 hc         1 PO1       0.051200
     55 H191         0.9340     1.7120     7.2260 hc         1 PO1       0.042200
     56 H192         0.8350     0.0270     7.8170 hc         1 PO1       0.042200
     57 HN21         6.7290     0.7420     7.4270 hn         1 PO1       0.324133
     58 HN22         6.9150     2.2050     6.7240 hn         1 PO1       0.324133
     59 H13          1.1290     2.3070    -1.3340 hn         1 PO1       0.327467
     60 H23          7.7840     1.8210     8.0540 hn         1 PO1       0.324133
@<TRIPOS>BOND
     1     1     2 ar  
     2     1     7 1   
     3     1    11 ar  
     4     2     8 ar  
     5     2    12 1   
     6     3     4 2   
     7     4     5 2   
     8     4     6 1   
     9     4     7 1   
    10     6    31 1   
    11     6    32 1   
    12     6    59 1   
    13     8     9 ar  
    14     8    33 1   
    15     9    10 ar  
    16     9    14 1   
    17    10    11 ar  
    18    10    17 1   
    19    11    34 1   
    20    12    13 1   
    21    13    35 1   
    22    13    36 1   
    23    13    37 1   
    24    14    15 1   
    25    14    18 1   
    26    14    38 1   
    27    15    16 1   
    28    15    21 1   
    29    15    39 1   
    30    16    17 1   
    31    16    40 1   
    32    16    41 1   
    33    17    42 1   
    34    17    43 1   
    35    18    19 1   
    36    18    44 1   
    37    18    45 1   
    38    19    20 1   
    39    19    46 1   
    40    19    47 1   
    41    20    21 1   
    42    20    22 1   
    43    20    23 1   
    44    21    25 1   
    45    21    48 1   
    46    22    49 1   
    47    22    50 1   
    48    22    51 1   
    49    23    24 1   
    50    23    26 1   
    51    23    52 1   
    52    24    25 1   
    53    24    53 1   
    54    24    54 1   
    55    25    55 1   
    56    25    56 1   
    57    26    27 1   
    58    27    28 2   
    59    27    29 2   
    60    27    30 1   
    61    30    57 1   
    62    30    58 1   
    63    30    60 1   
@<TRIPOS>SUBSTRUCTURE
     1 PO1         1 TEMP              0 ****  ****    0 ROOT
