@<TRIPOS>MOLECULE
PO2
    3     2     1     0     0
SMALL
bcc


@<TRIPOS>ATOM
      1 P          -0.0000   -0.4750   -0.0000 pe        1 PO2      0.184100
      2 O1          1.2100    0.4260    0.0000 o         1 PO2     -0.540600
      3 O2         -1.2100    0.4260    0.0000 o         1 PO2     -0.644500
@<TRIPOS>BOND
     1    1    2 1   
     2    1    3 2   
@<TRIPOS>SUBSTRUCTURE
     1 PO2         1 TEMP              0 ****  ****    0 ROOT
