@<TRIPOS>MOLECULE
molecule
    3     2     1     0     0
SMALL
bcc


@<TRIPOS>ATOM
      1 P            0.0000    -0.4040     0.0000 pe         1 PO2       0.150100
      2 O1           1.3790     0.3910     0.0000 o          1 PO2      -0.523600
      3 O2          -1.3790     0.3910     0.0000 o          1 PO2      -0.627500
@<TRIPOS>BOND
     1     1     2 1
     2     1     3 2
@<TRIPOS>SUBSTRUCTURE
     1 PO2         1 TEMP              0 ****  ****    0 ROOT
