@<TRIPOS>MOLECULE
PO3
    4     3     1     0     0
SMALL
bcc


@<TRIPOS>ATOM
      1 P           0.0220   -0.0000   -0.3400 p3        1 PO3      0.413000
      2 O1         -1.3740    0.6580    0.2020 o         1 PO3     -1.138000
      3 O2          1.2450    0.8560    0.3290 o         1 PO3     -1.138000
      4 O3          0.1070   -1.5140    0.2750 o         1 PO3     -1.138000
@<TRIPOS>BOND
     1    1    2 1   
     2    1    3 1   
     3    1    4 1   
@<TRIPOS>SUBSTRUCTURE
     1 PO3         1 TEMP              0 ****  ****    0 ROOT
