@<TRIPOS>MOLECULE
molecule
    4     3     1     0     0
SMALL
bcc


@<TRIPOS>ATOM
      1 P            0.0000     0.0000    -0.5000 p4         1 PO3      -0.523700
      2 O1          -1.2070     0.5680     0.3220 o          1 PO3      -0.858300
      3 O2           1.0950     0.7610     0.3220 o          1 PO3      -0.809500
      4 O3           0.1120    -1.3290     0.3220 o          1 PO3      -0.809500
@<TRIPOS>BOND
     1     1     2 2
     2     1     3 1
     3     1     4 1
@<TRIPOS>SUBSTRUCTURE
     1 PO3         1 TEMP              0 ****  ****    0 ROOT
