@<TRIPOS>MOLECULE
PO4
    5     4     1     0     0
SMALL
bcc


@<TRIPOS>ATOM
      1 P          -0.0000    0.0000    0.0000 p5        1 PO4      1.243000
      2 O1          0.0010   -1.2700   -0.8980 o         1 PO4     -1.060500
      3 O2         -0.0010    1.2700   -0.8980 o         1 PO4     -1.060500
      4 O3         -1.2700   -0.0010    0.8980 o         1 PO4     -1.060500
      5 O4          1.2700    0.0010    0.8980 o         1 PO4     -1.060500
@<TRIPOS>BOND
     1    1    2 1   
     2    1    3 1   
     3    1    4 1   
     4    1    5 1   
@<TRIPOS>SUBSTRUCTURE
     1 PO4         1 TEMP              0 ****  ****    0 ROOT
