@<TRIPOS>MOLECULE
PO5
   66    70     1     0     0
SMALL
bcc


@<TRIPOS>ATOM
      1 N1           0.0000     0.0000     0.0000 na         1 PO5       0.839500
      2 C4           1.3650    -0.0000    -2.3830 cc         1 PO5      -0.301300
      3 C5           2.0650    -0.0010    -1.2160 cd         1 PO5       0.041000
      4 C6           1.3680     0.0000     0.0000 cd         1 PO5      -0.244300
      5 C7           1.7770     0.0000     1.3440 cc         1 PO5      -0.409400
      6 C8           0.6180     0.0000     2.1250 cc         1 PO5       0.468500
      7 C10          3.1690    -0.0010     1.8380 ca         1 PO5       0.590100
      8 C15          3.4360    -0.0060     3.2140 ca         1 PO5      -0.420600
      9 C17          7.8020     0.1200     0.9550 ca         1 PO5      -0.041400
     10 C20         10.4190     0.3740     1.8240 ca         1 PO5       0.142100
     11 C21          9.4120     1.1070     2.4330 ca         1 PO5      -0.160500
     12 C22          8.1070     0.9810     2.0000 ca         1 PO5      -0.070000
     13 C24         12.6900    -0.2870     1.5770 c3         1 PO5       0.174400
     14 N2          -0.6930    -0.0000    -1.2170 nd         1 PO5      -0.679800
     15 C3          -0.0410    -0.0000    -2.3570 cc         1 PO5       0.568200
     16 N9          -0.4280     0.0060     1.3320 nd         1 PO5      -0.679100
     17 N11          4.1920    -0.0010     0.9830 nb         1 PO5      -0.718000
     18 C12          5.4390    -0.0030     1.4260 ca         1 PO5       0.712900
     19 N13          5.7190    -0.0030     2.7210 nb         1 PO5      -0.701000
     20 C14          4.7530    -0.0070     3.6280 ca         1 PO5       0.495200
     21 N16          6.4790    -0.0040     0.5110 nu         1 PO5      -0.293300
     22 C18          8.8110    -0.6140     0.3440 ca         1 PO5      -0.070000
     23 C19         10.1150    -0.4870     0.7790 ca         1 PO5      -0.160500
     24 O23         11.7040     0.4980     2.2500 os         1 PO5      -0.304900
     25 C25         14.0650    -0.0150     2.1910 c3         1 PO5       0.184100
     26 O26         14.0800    -0.4680     3.5450 oh         1 PO5      -0.566800
     27 C27         15.1360    -0.7580     1.3920 c3         1 PO5       0.139800
     28 N28         16.4630    -0.4380     1.9350 n3         1 PO5      -0.531600
     29 C29         17.4590    -1.4300     1.5110 c3         1 PO5       0.181600
     30 C30         16.8760     0.9190     1.5510 c3         1 PO5       0.181600
     31 N31         -0.7510     0.0000    -3.5550 nh         1 PO5      -0.454300
     32 C32         -0.0570    -0.1270    -4.8450 c3         1 PO5       0.124300
     33 C33         -0.5430     0.9970    -5.7690 c3         1 PO5       0.197900
     34 O34         -1.9720     0.9860    -5.8110 os         1 PO5      -0.402600
     35 C35         -2.5970     1.2390    -4.5510 c3         1 PO5       0.197900
     36 C36         -2.2170     0.1230    -3.5660 c3         1 PO5       0.124300
     37 H4           1.8890    -0.0010    -3.3310 ha         1 PO5       0.134000
     38 H5           3.1490    -0.0010    -1.2270 ha         1 PO5       0.140000
     39 H8           0.5880    -0.0030     3.2080 h4         1 PO5       0.016800
     40 H15          2.6280    -0.0090     3.9350 ha         1 PO5       0.129000
     41 H21          9.6490     1.7790     3.2490 ha         1 PO5       0.117500
     42 H22          7.3200     1.5540     2.4760 ha         1 PO5       0.115000
     43 H24         12.4490    -1.3380     1.6840 h1         1 PO5       0.010200
     44 H24A        12.7050    -0.0250     0.5260 h1         1 PO5       0.010200
     45 H14          4.9950    -0.0090     4.6840 h4         1 PO5      -0.018900
     46 HN16         6.2830    -0.0530    -0.4690 hn         1 PO5       0.287800
     47 H18          8.5740    -1.2860    -0.4720 ha         1 PO5       0.115000
     48 H19         10.9030    -1.0590     0.3030 ha         1 PO5       0.117500
     49 H25         14.2680     1.0490     2.1640 h1         1 PO5       0.011700
     50 HO26        14.0460     0.2740     4.1260 ho         1 PO5       0.394000
     51 H27         14.9650    -1.8250     1.4640 h1         1 PO5       0.017200
     52 H27A        15.0880    -0.4540     0.3530 h1         1 PO5       0.017200
     53 H29         17.2010    -2.3990     1.9220 h1         1 PO5       0.000867
     54 H29A        18.4380    -1.1350     1.8690 h1         1 PO5       0.000867
     55 H29B        17.4720    -1.4890     0.4300 h1         1 PO5       0.000867
     56 H30         16.8670     1.0070     0.4720 h1         1 PO5       0.000867
     57 H30A        17.8760     1.1110     1.9210 h1         1 PO5       0.000867
     58 H30B        16.1890     1.6400     1.9780 h1         1 PO5       0.000867
     59 H32          1.0120    -0.0360    -4.6940 h1         1 PO5       0.040700
     60 H32A        -0.2880    -1.0870    -5.2890 h1         1 PO5       0.040700
     61 H33         -0.1510     0.8390    -6.7660 h1         1 PO5       0.016200
     62 H33A        -0.2000     1.9510    -5.3870 h1         1 PO5       0.016200
     63 H35         -2.2570     2.1930    -4.1640 h1         1 PO5       0.016200
     64 H35A        -3.6730     1.2570    -4.6780 h1         1 PO5       0.016200
     65 H36         -2.6590    -0.8120    -3.8870 h1         1 PO5       0.040700
     66 H36A        -2.5690     0.3780    -2.5730 h1         1 PO5       0.040700
@<TRIPOS>BOND
     1     1     4 1   
     2     1    14 1   
     3     1    16 1   
     4     2     3 2   
     5     2    15 1   
     6     2    37 1   
     7     3     4 1   
     8     3    38 1   
     9     4     5 2   
    10     5     6 1   
    11     5     7 1   
    12     6    16 2   
    13     6    39 1   
    14     7     8 ar  
    15     7    17 ar  
    16     8    20 ar  
    17     8    40 1   
    18     9    12 ar  
    19     9    21 1   
    20     9    22 ar  
    21    10    11 ar  
    22    10    23 ar  
    23    10    24 1   
    24    11    12 ar  
    25    11    41 1   
    26    12    42 1   
    27    13    24 1   
    28    13    25 1   
    29    13    43 1   
    30    13    44 1   
    31    14    15 2   
    32    15    31 1   
    33    17    18 ar  
    34    18    19 ar  
    35    18    21 1   
    36    19    20 ar  
    37    20    45 1   
    38    21    46 1   
    39    22    23 ar  
    40    22    47 1   
    41    23    48 1   
    42    25    26 1   
    43    25    27 1   
    44    25    49 1   
    45    26    50 1   
    46    27    28 1   
    47    27    51 1   
    48    27    52 1   
    49    28    29 1   
    50    28    30 1   
    51    29    53 1   
    52    29    54 1   
    53    29    55 1   
    54    30    56 1   
    55    30    57 1   
    56    30    58 1   
    57    31    32 1   
    58    31    36 1   
    59    32    33 1   
    60    32    59 1   
    61    32    60 1   
    62    33    34 1   
    63    33    61 1   
    64    33    62 1   
    65    34    35 1   
    66    35    36 1   
    67    35    63 1   
    68    35    64 1   
    69    36    65 1   
    70    36    66 1   
@<TRIPOS>SUBSTRUCTURE
     1 PO5         1 TEMP              0 ****  ****    0 ROOT
