@<TRIPOS>MOLECULE
PO6
   21    21     1     0     0
SMALL
bcc


@<TRIPOS>ATOM
      1 CF           0.0000     0.0000     0.0000 ca         1 PO6      -0.159500
      2 CD           1.3810     0.0000     0.0000 ca         1 PO6      -0.044500
      3 CC           2.0750     0.0000     1.1960 ca         1 PO6      -0.107000
      4 CE           1.3880     0.0000     2.3960 ca         1 PO6      -0.044500
      5 CG           0.0060     0.0000     2.4020 ca         1 PO6      -0.159500
      6 CK          -0.6920     0.0050     1.2030 ca         1 PO6       0.106100
      7 OI          -2.0510     0.0050     1.2060 os         1 PO6      -0.273900
      8 CH          -2.7030     0.0110    -0.0660 c3         1 PO6       0.152400
      9 CJ          -4.1960     0.0100     0.1360 c          1 PO6       0.287100
     10 OB          -4.6570     0.0050     1.2570 o          1 PO6      -0.355100
     11 NA          -5.0200     0.0150    -0.9310 nz         1 PO6       0.202600
     12 H1          -0.5420     0.0020    -0.9380 ha         1 PO6       0.110000
     13 H2           1.9220    -0.0020    -0.9390 ha         1 PO6       0.115500
     14 H3           3.1580     0.0000     1.1940 ha         1 PO6       0.120000
     15 H4           1.9330    -0.0020     3.3320 ha         1 PO6       0.115500
     16 H5          -0.5320     0.0020     3.3430 ha         1 PO6       0.110000
     17 H6          -2.4140     0.8980    -0.6160 h1         1 PO6       0.040700
     18 H7          -2.4130    -0.8710    -0.6240 h1         1 PO6       0.040700
     19 H8          -4.8510    -0.8000    -1.4870 hn         1 PO6       0.247467
     20 H9          -5.9710     0.0140    -0.6180 hn         1 PO6       0.247467
     21 HA3         -4.8500     0.8340    -1.4800 hn         1 PO6       0.247467
@<TRIPOS>BOND
     1     1     2 ar  
     2     1     6 ar  
     3     1    12 1   
     4     2     3 ar  
     5     2    13 1   
     6     3     4 ar  
     7     3    14 1   
     8     4     5 ar  
     9     4    15 1   
    10     5     6 ar  
    11     5    16 1   
    12     6     7 1   
    13     7     8 1   
    14     8     9 1   
    15     8    17 1   
    16     8    18 1   
    17     9    10 2   
    18     9    11 1   
    19    11    19 1   
    20    11    20 1   
    21    11    21 1   
@<TRIPOS>SUBSTRUCTURE
     1 PO6         1 TEMP              0 ****  ****    0 ROOT
