@<TRIPOS>MOLECULE
PO7
   45    47     1     0     0
SMALL
bcc


@<TRIPOS>ATOM
      1 FAG          0.0000     0.0000     0.0000 f          1 PO7      -0.117900
      2 CAS          1.3510     0.0000     0.0000 ca         1 PO7       0.113900
      3 CAK          2.0430     0.0000     1.1960 ca         1 PO7      -0.100000
      4 CAJ          3.4270     0.0000     1.1980 ca         1 PO7      -0.103000
      5 CAR          4.1300    -0.0010     0.0030 ca         1 PO7       0.108900
      6 FAF          5.4810    -0.0000     0.0160 f          1 PO7      -0.120900
      7 CAM          3.4530    -0.0010    -1.2000 ca         1 PO7      -0.143000
      8 CAT          2.0540    -0.0070    -1.2120 ca         1 PO7      -0.069800
      9 CAH          1.3250    -0.0070    -2.4890 ce         1 PO7      -0.058200
     10 CAY          1.8440    -0.6480    -3.5640 cd         1 PO7      -0.193600
     11 CAW          1.1900    -0.5400    -4.8770 c          1 PO7       0.624700
     12 OAD          0.0560    -0.1080    -4.9640 o          1 PO7      -0.652500
     13 NAQ          1.8600    -0.9240    -5.9850 ns         1 PO7      -0.056100
     14 NAP          3.0080    -1.4110    -3.4350 ns         1 PO7      -0.054100
     15 CAX          3.6710    -1.8040    -4.5440 c          1 PO7       0.634700
     16 OAE          4.6860    -2.4690    -4.4480 o          1 PO7      -0.651500
     17 CAZ          3.1650    -1.4160    -5.8640 cc         1 PO7      -0.266600
     18 CAI          3.9550    -1.5360    -6.9640 cf         1 PO7       0.030800
     19 CAU          3.5440    -0.9720    -8.1980 cd         1 PO7      -0.427400
     20 NAN          2.5760    -0.0040    -8.3860 na         1 PO7       0.219100
     21 CAL          2.5100     0.2370    -9.7120 cd         1 PO7       0.237400
     22 NAO          3.3730    -0.5230   -10.3360 nc         1 PO7      -0.606000
     23 CAV          4.0340    -1.2750    -9.4530 cc         1 PO7       0.366600
     24 CBA          5.1110    -2.2790    -9.7700 c3         1 PO7      -0.080300
     25 CAB          4.6740    -3.6640    -9.2870 c3         1 PO7       0.001900
     26 CAC          5.3450    -2.3170   -11.2800 c3         1 PO7       0.001900
     27 CAA          6.4060    -1.8780    -9.0620 c3         1 PO7       0.001900
     28 H1           1.5020     0.0000     2.1340 ha         1 PO7       0.126000
     29 H2           3.9650     0.0000     2.1390 ha         1 PO7       0.126000
     30 H3           4.0040    -0.0040    -2.1330 ha         1 PO7       0.139000
     31 H4           0.4260     0.5870    -2.5970 ha         1 PO7       0.150000
     32 H6           1.4600    -0.7560    -6.8870 hn         1 PO7       0.189500
     33 H7           4.9640    -1.9190    -6.8610 ha         1 PO7       0.156000
     34 H8           2.0280     0.4360    -7.6740 hn         1 PO7       0.141700
     35 H9           1.8440     0.9470   -10.1870 h5         1 PO7       0.026100
     36 H11          4.8640    -3.7520    -8.2240 hc         1 PO7       0.010478
     37 H12          3.6160    -3.7960    -9.4760 hc         1 PO7       0.010478
     38 H13          5.2340    -4.4250    -9.8180 hc         1 PO7       0.010478
     39 H14          6.1180    -3.0410   -11.5080 hc         1 PO7       0.010478
     40 H15          5.6560    -1.3370   -11.6220 hc         1 PO7       0.010478
     41 H16          4.4270    -2.6000   -11.7810 hc         1 PO7       0.010478
     42 H17          7.2520    -2.1190    -9.6940 hc         1 PO7       0.010478
     43 H18          6.4900    -2.4190    -8.1270 hc         1 PO7       0.010478
     44 H19          6.3950    -0.8130    -8.8640 hc         1 PO7       0.010478
     45 H5           3.3460    -1.6660    -2.5290 hn         1 PO7       0.210500
@<TRIPOS>BOND
     1     1     2 1   
     2     2     3 ar  
     3     2     8 ar  
     4     3     4 ar  
     5     3    28 1   
     6     4     5 ar  
     7     4    29 1   
     8     5     6 1   
     9     5     7 ar  
    10     7     8 ar  
    11     7    30 1   
    12     8     9 1   
    13     9    10 2   
    14     9    31 1   
    15    10    11 1   
    16    10    14 1   
    17    11    12 2   
    18    11    13 1   
    19    13    17 1   
    20    13    32 1   
    21    14    15 1   
    22    14    45 1   
    23    15    16 2   
    24    15    17 1   
    25    17    18 2   
    26    18    19 1   
    27    18    33 1   
    28    19    20 1   
    29    19    23 2   
    30    20    21 1   
    31    20    34 1   
    32    21    22 2   
    33    21    35 1   
    34    22    23 1   
    35    23    24 1   
    36    24    25 1   
    37    24    26 1   
    38    24    27 1   
    39    25    36 1   
    40    25    37 1   
    41    25    38 1   
    42    26    39 1   
    43    26    40 1   
    44    26    41 1   
    45    27    42 1   
    46    27    43 1   
    47    27    44 1   
@<TRIPOS>SUBSTRUCTURE
     1 PO7         1 TEMP              0 ****  ****    0 ROOT
