@<TRIPOS>MOLECULE
molecule
   45    47     1     0     0
SMALL
bcc


@<TRIPOS>ATOM
      1 FAG          0.0000     0.0000     0.0000 f          1 PO7      -0.126900
      2 CAS          1.3510     0.0000     0.0000 ca         1 PO7       0.136900
      3 CAK          2.0430     0.0000     1.1960 ca         1 PO7      -0.137000
      4 CAJ          3.4270     0.0000     1.1980 ca         1 PO7      -0.138000
      5 CAR          4.1300    -0.0010     0.0030 ca         1 PO7       0.127900
      6 FAF          5.4810    -0.0000     0.0160 f          1 PO7      -0.130900
      7 CAM          3.4530    -0.0010    -1.2000 ca         1 PO7      -0.165000
      8 CAT          2.0540    -0.0070    -1.2120 ca         1 PO7      -0.079800
      9 CAH          1.3250    -0.0070    -2.4890 ce         1 PO7      -0.097200
     10 CAY          1.8440    -0.6480    -3.5640 cd         1 PO7      -0.038600
     11 CAW          1.1900    -0.5400    -4.8770 c          1 PO7       0.708700
     12 OAD          0.0560    -0.1080    -4.9640 o          1 PO7      -0.611500
     13 NAQ          1.8600    -0.9240    -5.9850 ns         1 PO7      -0.481100
     14 NAP          3.0080    -1.4110    -3.4350 ns         1 PO7      -0.479100
     15 CAX          3.6710    -1.8040    -4.5440 c          1 PO7       0.716700
     16 OAE          4.6860    -2.4690    -4.4480 o          1 PO7      -0.611500
     17 CAZ          3.1650    -1.4160    -5.8640 cc         1 PO7      -0.093600
     18 CAI          3.9550    -1.5360    -6.9640 cf         1 PO7      -0.030200
     19 CAU          3.5440    -0.9720    -8.1980 cd         1 PO7      -0.239400
     20 NAN          2.5760    -0.0040    -8.3860 na         1 PO7      -0.309900
     21 CAL          2.5100     0.2370    -9.7120 cd         1 PO7       0.421400
     22 NAO          3.3730    -0.5230   -10.3360 nc         1 PO7      -0.693000
     23 CAV          4.0340    -1.2750    -9.4530 cc         1 PO7       0.389600
     24 CBA          5.1110    -2.2790    -9.7700 c3         1 PO7      -0.086300
     25 CAB          4.6740    -3.6640    -9.2870 c3         1 PO7      -0.081433
     26 CAC          5.3450    -2.3170   -11.2800 c3         1 PO7      -0.081433
     27 CAA          6.4060    -1.8780    -9.0620 c3         1 PO7      -0.081433
     28 H1           1.5020     0.0000     2.1340 ha         1 PO7       0.157000
     29 H2           3.9650     0.0000     2.1390 ha         1 PO7       0.156000
     30 H3           4.0040    -0.0040    -2.1330 ha         1 PO7       0.166000
     31 H4           0.4260     0.5870    -2.5970 ha         1 PO7       0.181000
     32 H6           1.4600    -0.7560    -6.8870 hn         1 PO7       0.344500
     33 H7           4.9630    -1.9190    -6.8600 ha         1 PO7       0.186000
     34 H8           2.0280     0.4360    -7.6740 hn         1 PO7       0.308700
     35 H9           1.8440     0.9470   -10.1870 h5         1 PO7       0.070100
     36 H11          5.2230    -4.4250    -9.8280 hc         1 PO7       0.040700
     37 H12          4.8780    -3.7580    -8.2270 hc         1 PO7       0.040700
     38 H13          3.6130    -3.7900    -9.4620 hc         1 PO7       0.040700
     39 H14          5.6550    -1.3370   -11.6220 hc         1 PO7       0.040700
     40 H15          4.4270    -2.6010   -11.7810 hc         1 PO7       0.040700
     41 H16          6.1180    -3.0410   -11.5080 hc         1 PO7       0.040700
     42 H17          7.2530    -2.1190    -9.6940 hc         1 PO7       0.040700
     43 H18          6.4890    -2.4190    -8.1270 hc         1 PO7       0.040700
     44 H19          6.3950    -0.8130    -8.8640 hc         1 PO7       0.040700
     45 H5           3.3470    -1.6650    -2.5290 hn         1 PO7       0.357500
@<TRIPOS>BOND
     1    22    21 2
     2    22    23 1
     3    25    24 1
     4    21    20 1
     5    23    24 1
     6    23    19 2
     7    24    26 1
     8    24    27 1
     9    20    19 1
    10    19    18 1
    11    18    17 2
    12    13    17 1
    13    13    11 1
    14    17    15 1
    15    12    11 2
    16    11    10 1
    17    15    16 2
    18    15    14 1
    19    10    14 1
    20    10     9 2
    21     9     8 1
    22     8     7 ar
    23     8     2 ar
    24     7     5 ar
    25     1     2 1
    26     2     3 ar
    27     5     6 1
    28     5     4 ar
    29     3     4 ar
    30     3    28 1
    31     4    29 1
    32     7    30 1
    33     9    31 1
    34    13    32 1
    35    18    33 1
    36    20    34 1
    37    21    35 1
    38    25    36 1
    39    25    37 1
    40    25    38 1
    41    26    39 1
    42    26    40 1
    43    26    41 1
    44    27    42 1
    45    27    43 1
    46    27    44 1
    47    14    45 1
@<TRIPOS>SUBSTRUCTURE
     1 PO7         1 TEMP              0 ****  ****    0 ROOT
