@<TRIPOS>MOLECULE
POA
   10     9     1     0     0
SMALL
bcc


@<TRIPOS>ATOM
      1 C1         -0.0040    0.0570    0.1200 c3        1 POA     -0.386600
      2 C2          1.4230   -0.0260   -0.0500 c         1 POA      0.614900
      3 O2          2.2790   -0.1980    0.8470 o         1 POA     -0.723100
      4 O1P        -0.2850    2.7370   -0.0500 o         1 POA     -0.939167
      5 O2P        -2.0370    1.2080   -1.0950 o         1 POA     -0.939167
      6 O3P         0.2710    1.3970   -2.1510 o         1 POA     -0.939167
      7 P          -0.5770    1.5380   -0.9090 p5        1 POA      1.195700
      8 H11        -0.5460   -0.7580   -0.3990 hc        1 POA      0.053700
      9 H12        -0.3530    0.1740    1.1590 hc        1 POA      0.053700
     10 H2          1.7550    0.1230   -1.1100 h4        1 POA      0.009200
@<TRIPOS>BOND
     1    1    2 1   
     2    1    7 1   
     3    1    8 1   
     4    1    9 1   
     5    2    3 2   
     6    2   10 1   
     7    4    7 1   
     8    5    7 1   
     9    6    7 1   
@<TRIPOS>SUBSTRUCTURE
     1 POA         1 TEMP              0 ****  ****    0 ROOT
