@<TRIPOS>MOLECULE
molecule
   10     9     1     0     0
SMALL
bcc


@<TRIPOS>ATOM
      1 C1           0.0000     0.0000     0.0000 c3         1 POA      -0.346600
      2 C2           1.5060     0.0000     0.0000 c          1 POA       0.625900
      3 O2           2.1110     0.0000     1.0440 o          1 POA      -0.654100
      4 O1P         -0.1150     2.6950    -0.1620 o          1 POA      -0.907833
      5 O2P         -2.2180     1.4880    -0.8570 o          1 POA      -0.907833
      6 O3P         -0.0740     1.4870    -2.3770 o          1 POA      -0.907833
      7 P           -0.6080     1.4870    -0.8590 p5         1 POA       1.035700
      8 H11         -0.3610     0.0000     1.0210 hc         1 POA       0.044700
      9 H12         -0.3610    -0.8850    -0.5100 hc         1 POA       0.044700
     10 H2           2.0470    -0.0190    -0.9380 h4         1 POA      -0.028800
@<TRIPOS>BOND
     1     1     2 1
     2     1     7 1
     3     1     8 1
     4     1     9 1
     5     2     3 2
     6     2    10 1
     7     4     7 1
     8     5     7 1
     9     6     7 1
@<TRIPOS>SUBSTRUCTURE
     1 POA         1 TEMP              0 ****  ****    0 ROOT
