@<TRIPOS>MOLECULE
POB
   30    29     1     0     0
SMALL
bcc


@<TRIPOS>ATOM
      1 C1           0.0000     0.0000     0.0000 c          1 POB       0.989600
      2 O1          -0.6710     1.0070     0.5800 o          1 POB      -0.921800
      3 O2          -0.6030    -0.9050    -0.5220 o          1 POB      -0.921800
      4 C2           1.5070     0.0000     0.0000 c3         1 POB       0.118100
      5 C3           2.0170     0.0000     1.4420 c3         1 POB      -0.031400
      6 C4           3.5470    -0.0000     1.4420 c3         1 POB      -0.019100
      7 O2P          1.9840    -1.1660    -0.6730 os         1 POB      -0.475200
      8 P1           2.8650    -0.6570    -1.9190 p5         1 POB       0.886300
      9 O1P          2.0220     0.1610    -2.8190 o          1 POB      -0.566300
     10 O3P          4.0930     0.2320    -1.3810 os         1 POB      -0.390800
     11 P2           4.9330     0.6980    -2.6720 p5         1 POB       0.687900
     12 O4P          5.9200     1.9020    -2.2650 o          1 POB      -0.732167
     13 O5P          5.7990    -0.5400    -3.2260 o          1 POB      -0.732167
     14 O6P          4.0020     1.1580    -3.7270 o          1 POB      -0.732167
     15 C1'          3.5110    -2.0950    -2.8350 c3         1 POB      -0.172700
     16 N1'          2.3960    -2.9610    -3.2390 nz         1 POB       0.106400
     17 C2'          4.4670    -2.8830    -1.9360 c3         1 POB       0.052900
     18 H2           1.8680     0.8850    -0.5100 h1         1 POB       0.054700
     19 H31          1.6550    -0.8840     1.9530 hc         1 POB       0.006200
     20 H32          1.6560     0.8850     1.9520 hc         1 POB       0.006200
     21 H41          3.9080     0.8300     0.8480 hc         1 POB       0.001367
     22 H42          3.9080    -0.9310     1.0210 hc         1 POB       0.001367
     23 H43          3.9070     0.1000     2.4590 hc         1 POB       0.001367
     24 H1'          4.0420    -1.7540    -3.7160 hx         1 POB       0.186700
     25 HN11         1.6190    -2.3950    -3.5180 hn         1 POB       0.189800
     26 HN12         2.6810    -3.5370    -4.0060 hn         1 POB       0.189800
     27 H2'1         4.9280    -2.2110    -1.2220 hc         1 POB       0.008033
     28 H2'2         5.2360    -3.3450    -2.5440 hc         1 POB       0.008033
     29 H2'3         3.9160    -3.6500    -1.4070 hc         1 POB       0.008033
     30 H1'3         2.1170    -3.5300    -2.4640 hn         1 POB       0.189800
@<TRIPOS>BOND
     1     1     2 1   
     2     1     3 1   
     3     1     4 1   
     4     4     5 1   
     5     4     7 1   
     6     4    18 1   
     7     5     6 1   
     8     5    19 1   
     9     5    20 1   
    10     6    21 1   
    11     6    22 1   
    12     6    23 1   
    13     7     8 1   
    14     8     9 2   
    15     8    10 1   
    16     8    15 1   
    17    10    11 1   
    18    11    12 1   
    19    11    13 1   
    20    11    14 1   
    21    15    16 1   
    22    15    17 1   
    23    15    24 1   
    24    16    25 1   
    25    16    26 1   
    26    16    30 1   
    27    17    27 1   
    28    17    28 1   
    29    17    29 1   
@<TRIPOS>SUBSTRUCTURE
     1 POB         1 TEMP              0 ****  ****    0 ROOT
