@<TRIPOS>MOLECULE
POC
   24    23     1     0     0
SMALL
bcc


@<TRIPOS>ATOM
      1 P1           0.0000     0.0000     0.0000 p5         1 POC       0.630900
      2 O3           1.6090     0.0000     0.0000 o          1 POC      -0.725167
      3 O4          -0.4940     0.0000     1.3950 o          1 POC      -0.725167
      4 O5          -0.5360     1.3160    -0.7590 o          1 POC      -0.725167
      5 O6          -0.5370    -1.3140    -0.7610 os         1 POC      -0.467200
      6 C4          -0.1310    -2.4380     0.0220 c3         1 POC       0.202400
      7 C5          -0.6130    -3.7260    -0.6480 c3         1 POC      -0.047200
      8 N1           0.1100    -3.9200    -1.9130 n4         1 POC       0.068200
      9 C6           1.5570    -3.9040    -1.6570 c3         1 POC       0.005767
     10 C7          -0.2340    -2.8380    -2.8450 c3         1 POC       0.005767
     11 C8          -0.2690    -5.2120    -2.5000 c3         1 POC       0.005767
     12 H41         -0.5620    -2.3630     1.0130 h1         1 POC       0.039200
     13 H42          0.9500    -2.4520     0.0980 h1         1 POC       0.039200
     14 H51         -0.4240    -4.5670     0.0080 hx         1 POC       0.046700
     15 H52         -1.6750    -3.6540    -0.8470 hx         1 POC       0.046700
     16 H61          1.9050    -2.8790    -1.6190 hx         1 POC       0.066700
     17 H62          1.7610    -4.3910    -0.7110 hx         1 POC       0.066700
     18 H63          2.0700    -4.4310    -2.4520 hx         1 POC       0.066700
     19 H71          0.3650    -1.9640    -2.6200 hx         1 POC       0.066700
     20 H72         -0.0380    -3.1600    -3.8600 hx         1 POC       0.066700
     21 H73         -1.2840    -2.5920    -2.7400 hx         1 POC       0.066700
     22 H81          0.2550    -5.3500    -3.4390 hx         1 POC       0.066700
     23 H82         -1.3380    -5.2290    -2.6770 hx         1 POC       0.066700
     24 H83         -0.0030    -6.0110    -1.8180 hx         1 POC       0.066700
@<TRIPOS>BOND
     1     1     2 1   
     2     1     3 1   
     3     1     4 1   
     4     1     5 1   
     5     5     6 1   
     6     6     7 1   
     7     6    12 1   
     8     6    13 1   
     9     7     8 1   
    10     7    14 1   
    11     7    15 1   
    12     8     9 1   
    13     8    10 1   
    14     8    11 1   
    15     9    16 1   
    16     9    17 1   
    17     9    18 1   
    18    10    19 1   
    19    10    20 1   
    20    10    21 1   
    21    11    22 1   
    22    11    23 1   
    23    11    24 1   
@<TRIPOS>SUBSTRUCTURE
     1 POC         1 TEMP              0 ****  ****    0 ROOT
