@<TRIPOS>MOLECULE
POD
   52    56     1     0     0
SMALL
bcc


@<TRIPOS>ATOM
      1 O5         -0.1480    0.3390   -0.0770 o         1 POD     -0.570500
      2 C13         1.0700    0.2870   -0.1880 c         1 POD      0.731600
      3 O4          1.8050    0.5370    0.9600 os        1 POD     -0.413900
      4 C10         1.9990    0.0680   -1.3530 c3        1 POD     -0.155700
      5 C9          3.3130   -0.3240   -0.6610 c3        1 POD     -0.105700
      6 C12         3.2230    0.3990    0.6830 c3        1 POD      0.135400
      7 C11         1.6900   -0.9340   -2.4510 c3        1 POD      0.053900
      8 C5          2.8780   -0.9430   -3.3830 ca        1 POD     -0.060300
      9 C6          4.1490   -0.4850   -3.0000 ca        1 POD     -0.118300
     10 C8          4.4630    0.0010   -1.6000 c3        1 POD      0.211400
     11 O3          5.6090   -0.6330   -1.0460 oh        1 POD     -0.591800
     12 C7          5.2120   -0.4250   -3.9330 ca        1 POD     -0.120000
     13 C2          4.9530   -0.8620   -5.2110 ca        1 POD      0.062100
     14 C3          3.6730   -1.3440   -5.5920 ca        1 POD      0.064100
     15 C4          2.6240   -1.3880   -4.7030 ca        1 POD     -0.104000
     16 O2          5.8090   -0.9130   -6.3050 os        1 POD     -0.331900
     17 C1          5.0410   -1.4500   -7.4100 c3        1 POD      0.320200
     18 O1          3.7000   -1.7120   -6.9320 os        1 POD     -0.327900
     19 C14         1.3300   -2.2930   -1.9290 ca        1 POD     -0.040300
     20 C15         0.0340   -2.4860   -1.4390 ca        1 POD     -0.219500
     21 C16        -0.3490   -3.7410   -0.9530 ca        1 POD      0.139100
     22 O6         -1.5950   -4.0170   -0.4310 os        1 POD     -0.311900
     23 C20        -2.5030   -2.9210   -0.3570 c3        1 POD      0.108700
     24 C17         0.5570   -4.8230   -0.9690 ca        1 POD      0.046100
     25 O7          0.1680   -6.1060   -0.6370 os        1 POD     -0.309900
     26 C21        -0.0480   -6.3010    0.7620 c3        1 POD      0.114700
     27 C18         1.8670   -4.6030   -1.4450 ca        1 POD      0.139100
     28 C19         2.2490   -3.3440   -1.9270 ca        1 POD     -0.219500
     29 O8          2.7070   -5.6940   -1.3810 os        1 POD     -0.311900
     30 C22         3.9790   -5.5450   -2.0030 c3        1 POD      0.108700
     31 H10         2.1110    1.0820   -1.8410 hc        1 POD      0.091700
     32 H9          3.3290   -1.4350   -0.4690 hc        1 POD      0.103700
     33 H121        3.6620    1.4260    0.6540 h1        1 POD      0.071200
     34 H122        3.6470   -0.1940    1.5290 h1        1 POD      0.071200
     35 H11         0.7970   -0.5500   -3.0330 hc        1 POD      0.082700
     36 H8          4.6440    1.1150   -1.6400 h1        1 POD      0.048700
     37 HO3         6.3370   -0.5230   -1.6700 ho        1 POD      0.408000
     38 H7          6.2000   -0.0350   -3.6550 ha        1 POD      0.151000
     39 H4          1.6290   -1.7530   -4.9940 ha        1 POD      0.167000
     40 H11A        5.5020   -2.4170   -7.7270 h2        1 POD      0.077700
     41 H12         4.9880   -0.6770   -8.2150 h2        1 POD      0.077700
     42 H15        -0.6680   -1.6380   -1.4220 ha        1 POD      0.154500
     43 H201       -2.7570   -2.5550   -1.3810 h1        1 POD      0.048533
     44 H202       -3.4040   -3.3680    0.1360 h1        1 POD      0.048533
     45 H203       -2.0800   -2.0930    0.2630 h1        1 POD      0.048533
     46 H211        0.8990   -6.1300    1.3270 h1        1 POD      0.042367
     47 H212       -0.3650   -7.3710    0.8300 h1        1 POD      0.042367
     48 H213       -0.8540   -5.6210    1.1300 h1        1 POD      0.042367
     49 H19         3.2680   -3.1780   -2.3050 ha        1 POD      0.154500
     50 H221        4.4370   -6.5610   -1.8960 h1        1 POD      0.048533
     51 H222        3.8670   -5.2740   -3.0800 h1        1 POD      0.048533
     52 H223        4.5910   -4.7790   -1.4660 h1        1 POD      0.048533
@<TRIPOS>BOND
     1    1    2 2   
     2    2    3 1   
     3    2    4 1   
     4    3    6 1   
     5    4    5 1   
     6    4    7 1   
     7    4   31 1   
     8    5    6 1   
     9    5   10 1   
    10    5   32 1   
    11    6   33 1   
    12    6   34 1   
    13    7    8 1   
    14    7   19 1   
    15    7   35 1   
    16    8    9 ar  
    17    8   15 ar  
    18    9   10 1   
    19    9   12 ar  
    20   10   11 1   
    21   10   36 1   
    22   11   37 1   
    23   12   13 ar  
    24   12   38 1   
    25   13   14 ar  
    26   13   16 1   
    27   14   15 ar  
    28   14   18 1   
    29   15   39 1   
    30   16   17 1   
    31   17   18 1   
    32   17   40 1   
    33   17   41 1   
    34   19   20 ar  
    35   19   28 ar  
    36   20   21 ar  
    37   20   42 1   
    38   21   22 1   
    39   21   24 ar  
    40   22   23 1   
    41   23   43 1   
    42   23   44 1   
    43   23   45 1   
    44   24   25 1   
    45   24   27 ar  
    46   25   26 1   
    47   26   46 1   
    48   26   47 1   
    49   26   48 1   
    50   27   28 ar  
    51   27   29 1   
    52   28   49 1   
    53   29   30 1   
    54   30   50 1   
    55   30   51 1   
    56   30   52 1   
@<TRIPOS>SUBSTRUCTURE
     1 POD         1 TEMP              0 ****  ****    0 ROOT
