@<TRIPOS>MOLECULE
molecule
   52    56     1     0     0
SMALL
bcc


@<TRIPOS>ATOM
      1 O5           0.0000     0.0000     0.0000 o          1 POD      -0.560500
      2 C13          1.2090     0.0000     0.0000 c          1 POD       0.753600
      3 O4           2.0080     0.0000     1.1060 os         1 POD      -0.407900
      4 C10          2.1000    -0.0270    -1.2050 c3         1 POD      -0.192700
      5 C9           3.3840    -0.7270    -0.6590 c3         1 POD      -0.133700
      6 C12          3.4260    -0.0680     0.7290 c3         1 POD       0.143400
      7 C11          1.6330    -0.8630    -2.3800 c3         1 POD       0.052900
      8 C5           2.7860    -0.9720    -3.3630 ca         1 POD      -0.066300
      9 C6           4.0820    -0.7340    -3.0120 ca         1 POD      -0.103300
     10 C8           4.4990    -0.3330    -1.6080 c3         1 POD       0.214400
     11 O3           5.7030    -1.0140    -1.2470 oh         1 POD      -0.594800
     12 C7           5.1110    -0.8350    -3.9510 ca         1 POD      -0.091000
     13 C2           4.7790    -1.2090    -5.2410 ca         1 POD       0.045100
     14 C3           3.4460    -1.4780    -5.5910 ca         1 POD       0.057100
     15 C4           2.4320    -1.3700    -4.6560 ca         1 POD      -0.102000
     16 O2           5.5590    -1.3820    -6.3320 os         1 POD      -0.318900
     17 C1           4.6560    -1.3830    -7.4570 c3         1 POD       0.329200
     18 O1           3.4000    -1.8220    -6.8990 os         1 POD      -0.316900
     19 C14          1.2390    -2.2350    -1.9020 ca         1 POD      -0.032300
     20 C15         -0.0790    -2.5010    -1.5800 ca         1 POD      -0.240500
     21 C16         -0.4470    -3.7640    -1.1410 ca         1 POD       0.135600
     22 O6          -1.7440    -4.0250    -0.8260 os         1 POD      -0.280400
     23 C20         -2.4740    -2.8160    -1.0480 c3         1 POD       0.098700
     24 C17          0.5130    -4.7610    -1.0180 ca         1 POD       0.037100
     25 O7           0.1560    -6.0020    -0.5870 os         1 POD      -0.298900
     26 C21          0.2910    -5.9990     0.8350 c3         1 POD       0.115700
     27 C18          1.8360    -4.4910    -1.3470 ca         1 POD       0.135600
     28 C19          2.1950    -3.2260    -1.7860 ca         1 POD      -0.240500
     29 O8           2.7770    -5.4650    -1.2330 os         1 POD      -0.280400
     30 C22          4.0220    -4.8850    -1.6320 c3         1 POD       0.098700
     31 H10          2.3300     0.9820    -1.5260 hc         1 POD       0.089700
     32 H9           3.2580    -1.8010    -0.5960 hc         1 POD       0.117700
     33 H121         3.8520     0.9260     0.6660 h1         1 POD       0.067200
     34 H122         3.9770    -0.6860     1.4270 h1         1 POD       0.067200
     35 H11          0.7900    -0.3800    -2.8580 hc         1 POD       0.080700
     36 H8           4.6520     0.7390    -1.5660 h1         1 POD       0.044700
     37 HO3          6.3750    -0.3820    -1.0490 ho         1 POD       0.406000
     38 H7           6.0750    -0.3850    -3.7490 ha         1 POD       0.149000
     39 H4           1.4010    -1.2990    -4.9820 ha         1 POD       0.157000
     40 H11A         4.5590    -0.3840    -7.8650 h2         1 POD       0.072700
     41 H12          4.9970    -2.0790    -8.2140 h2         1 POD       0.072700
     42 H15         -0.8300    -1.7290    -1.6950 ha         1 POD       0.160500
     43 H201        -3.5260    -2.9890    -0.8560 h1         1 POD       0.048200
     44 H202        -2.1070    -2.0450    -0.3810 h1         1 POD       0.048200
     45 H203        -2.3420    -2.4980    -2.0750 h1         1 POD       0.048200
     46 H211         1.0350    -6.7290     1.1290 h1         1 POD       0.036367
     47 H212        -0.6600    -6.2500     1.2890 h1         1 POD       0.036367
     48 H213         0.6010    -5.0150     1.1670 h1         1 POD       0.036367
     49 H19          3.2260    -3.0150    -2.0430 ha         1 POD       0.160500
     50 H221         4.7950    -5.6440    -1.6170 h1         1 POD       0.048200
     51 H222         3.9290    -4.4840    -2.6340 h1         1 POD       0.048200
     52 H223         4.2850    -4.0880    -0.9470 h1         1 POD       0.048200
@<TRIPOS>BOND
     1     1     2 2
     2     2     3 1
     3     2     4 1
     4     3     6 1
     5     4     5 1
     6     4     7 1
     7     4    31 1
     8     5     6 1
     9     5    10 1
    10     5    32 1
    11     6    33 1
    12     6    34 1
    13     7     8 1
    14     7    19 1
    15     7    35 1
    16     8     9 ar
    17     8    15 ar
    18     9    10 1
    19     9    12 ar
    20    10    11 1
    21    10    36 1
    22    11    37 1
    23    12    13 ar
    24    12    38 1
    25    13    14 ar
    26    13    16 1
    27    14    15 ar
    28    14    18 1
    29    15    39 1
    30    16    17 1
    31    17    18 1
    32    17    40 1
    33    17    41 1
    34    19    20 ar
    35    19    28 ar
    36    20    21 ar
    37    20    42 1
    38    21    22 1
    39    21    24 ar
    40    22    23 1
    41    23    43 1
    42    23    44 1
    43    23    45 1
    44    24    25 1
    45    24    27 ar
    46    25    26 1
    47    26    46 1
    48    26    47 1
    49    26    48 1
    50    27    28 ar
    51    27    29 1
    52    28    49 1
    53    29    30 1
    54    30    50 1
    55    30    51 1
    56    30    52 1
@<TRIPOS>SUBSTRUCTURE
     1 POD         1 TEMP              0 ****  ****    0 ROOT
