@<TRIPOS>MOLECULE
molecule
   61    65     1     0     0
SMALL
bcc


@<TRIPOS>ATOM
      1 O1           0.0000     0.0000     0.0000 o          1 POF      -0.529300
      2 O3           1.8500     0.0000     1.4610 os         1 POF      -0.394800
      3 O4          -6.5090     3.4640     7.8800 o          1 POF      -0.594500
      4 O2           2.1980    -0.9980    -0.6470 o          1 POF      -0.529300
      5 C1           1.0740     0.7730     2.2650 ca         1 POF       0.000100
      6 C2          -0.0390     0.2320     2.8860 ca         1 POF      -0.064000
      7 N1           1.8890     1.4500    -0.6470 nz         1 POF      -0.826500
      8 C3          -0.8380     1.0130     3.7100 ca         1 POF      -0.042300
      9 C4          -0.5110     2.3380     3.9170 ca         1 POF      -0.012300
     10 C5           0.6010     2.8810     3.2900 ca         1 POF      -0.097000
     11 S1           1.4200     0.0000     0.0000 s6         1 POF       1.473400
     12 C6           1.3960     2.1060     2.4730 ca         1 POF      -0.181000
     13 C7          -2.0460     0.3630     4.3330 c3         1 POF      -0.040100
     14 C8          -2.5910     1.2020     5.4880 c3         1 POF      -0.081400
     15 C9          -2.7250     2.6480     5.0080 c3         1 POF      -0.064700
     16 C10         -1.3210     3.2220     4.8210 c3         1 POF      -0.036400
     17 C11         -3.4710     3.5000     6.0310 c3         1 POF      -0.064700
     18 C12         -3.5900     4.9270     5.4790 c3         1 POF      -0.136000
     19 C13         -2.1970     5.5140     5.2650 c3         1 POF      -0.056400
     20 C14         -1.4190     4.6420     4.2710 c3         1 POF      -0.079400
     21 C15         -4.3360     4.8920     4.1430 c3         1 POF      -0.089100
     22 C16         -4.8810     2.9530     6.2620 c3         1 POF      -0.154400
     23 C17         -5.6260     3.8970     7.1720 c          1 POF       0.700500
     24 N2          -5.3310     5.2050     7.2160 n          1 POF      -0.475400
     25 C18         -4.3750     5.7610     6.4530 c          1 POF       0.712500
     26 O5          -4.1410     6.9470     6.5530 o          1 POF      -0.601500
     27 C19         -6.0860     6.0630     8.1330 c3         1 POF       0.143300
     28 C20         -5.3880     6.1090     9.4670 ca         1 POF      -0.254600
     29 C21         -4.4280     7.0760     9.7250 ca         1 POF      -0.074000
     30 C22         -3.8120     7.0800    10.9670 ca         1 POF      -0.263300
     31 C23         -4.1720     6.1270    11.9000 ca         1 POF       0.429200
     32 N3          -5.0890     5.2210    11.6200 nb         1 POF      -0.690000
     33 C24         -5.7000     5.1900    10.4510 ca         1 POF       0.440200
     34 H2          -0.2890    -0.8100     2.7280 ha         1 POF       0.168000
     35 HN1          1.1980     2.1450    -0.4430 hn         1 POF       0.495467
     36 HN1A         1.9850     1.3580    -1.6390 hn         1 POF       0.495467
     37 H5           0.8530     3.9220     3.4520 ha         1 POF       0.164000
     38 H6           2.3270     2.5050     2.0870 ha         1 POF       0.128000
     39 H7          -2.8170     0.2540     3.5800 hc         1 POF       0.071700
     40 H7A         -1.7670    -0.6140     4.7070 hc         1 POF       0.071700
     41 H8          -3.5620     0.8250     5.7860 hc         1 POF       0.065200
     42 H8A         -1.9040     1.1590     6.3250 hc         1 POF       0.065200
     43 H9          -3.2550     2.6680     4.0630 hc         1 POF       0.065700
     44 H10         -0.8340     3.2610     5.7880 hc         1 POF       0.085700
     45 H11         -2.9240     3.5120     6.9660 hc         1 POF       0.075700
     46 H13         -2.2870     6.5180     4.8690 hc         1 POF       0.069200
     47 H13A        -1.6690     5.5390     6.2100 hc         1 POF       0.069200
     48 H14         -1.9390     4.6260     3.3210 hc         1 POF       0.047700
     49 H14A        -0.4230     5.0480     4.1380 hc         1 POF       0.047700
     50 H15         -4.3970     5.8950     3.7370 hc         1 POF       0.049367
     51 H15A        -5.3360     4.5040     4.2970 hc         1 POF       0.049367
     52 H15B        -3.8040     4.2540     3.4480 hc         1 POF       0.049367
     53 H16         -4.8200     1.9760     6.7260 hc         1 POF       0.085700
     54 H16A        -5.4010     2.8790     5.3150 hc         1 POF       0.085700
     55 H19         -7.0850     5.6640     8.2620 h1         1 POF       0.086700
     56 H19A        -6.1470     7.0640     7.7230 h1         1 POF       0.086700
     57 H21         -4.1660     7.8110     8.9740 ha         1 POF       0.153000
     58 H22         -3.0580     7.8210    11.2030 ha         1 POF       0.141000
     59 H23         -3.6930     6.1210    12.8720 h4         1 POF       0.026100
     60 H24         -6.4480     4.4310    10.2580 h4         1 POF       0.041100
     61 H131         2.7620     1.7280    -0.2450 hn         1 POF       0.495467
@<TRIPOS>BOND
     1     1    11 2
     2     2     5 1
     3     2    11 1
     4     3    23 2
     5     4    11 2
     6     5     6 ar
     7     5    12 ar
     8     6     8 ar
     9     7    11 1
    10     8     9 ar
    11     8    13 1
    12     9    10 ar
    13     9    16 1
    14    10    12 ar
    15    13    14 1
    16    14    15 1
    17    15    16 1
    18    15    17 1
    19    16    20 1
    20    17    18 1
    21    17    22 1
    22    18    19 1
    23    18    21 1
    24    18    25 1
    25    19    20 1
    26    22    23 1
    27    23    24 1
    28    24    25 1
    29    24    27 1
    30    25    26 2
    31    27    28 1
    32    28    29 ar
    33    28    33 ar
    34    29    30 ar
    35    30    31 ar
    36    31    32 ar
    37    32    33 ar
    38     6    34 1
    39     7    35 1
    40     7    36 1
    41    10    37 1
    42    12    38 1
    43    13    39 1
    44    13    40 1
    45    14    41 1
    46    14    42 1
    47    15    43 1
    48    16    44 1
    49    17    45 1
    50    19    46 1
    51    19    47 1
    52    20    48 1
    53    20    49 1
    54    21    50 1
    55    21    51 1
    56    21    52 1
    57    22    53 1
    58    22    54 1
    59    27    55 1
    60    27    56 1
    61    29    57 1
    62    30    58 1
    63    31    59 1
    64    33    60 1
    65    61     7 1
@<TRIPOS>SUBSTRUCTURE
     1 POF         1 TEMP              0 ****  ****    0 ROOT
