@<TRIPOS>MOLECULE
molecule
   73    72     1     0     0
SMALL
bcc


@<TRIPOS>ATOM
      1 OH           0.0000     0.0000     0.0000 oh         1 POG      -0.597800
      2 C2           1.4270     0.0000     0.0000 c3         1 POG       0.146100
      3 C1           1.9190     0.0000     1.4400 c3         1 POG      -0.120100
      4 C3           1.9050     1.2350    -0.7530 c3         1 POG       0.132400
      5 O2           1.3940     1.1960    -2.0760 os         1 POG      -0.406600
      6 C5           1.8130     2.3340    -2.8280 c3         1 POG       0.141100
      7 C4           3.1980     5.0510     1.9690 c3         1 POG       0.149400
      8 C6           4.7030     4.8770     2.1330 c3         1 POG       0.121100
      9 C7           6.7640     5.8750     1.6080 c3         1 POG       0.139400
     10 C8           7.4020     7.0650     0.8990 c3         1 POG       0.138100
     11 O4           7.0180     7.0250    -0.4740 os         1 POG      -0.384600
     12 C9           7.5540     8.1260    -1.1910 c3         1 POG       0.139400
     13 C10          7.0950     8.0420    -2.6410 c3         1 POG       0.143100
     14 O5           5.6700     8.1070    -2.6650 os         1 POG      -0.386600
     15 C11          5.1740     8.0660    -3.9940 c3         1 POG       0.138400
     16 C12          3.6530     8.1590    -3.9570 c3         1 POG       0.141100
     17 O6           3.1550     7.0660    -3.1880 os         1 POG      -0.384600
     18 C13          1.7410     7.1080    -3.0860 c3         1 POG       0.139400
     19 C14          1.2700     5.9320    -2.2390 c3         1 POG       0.141100
     20 O7           1.7040     4.7260    -2.8670 os         1 POG      -0.404600
     21 C15          1.3240     3.5860    -2.1120 c3         1 POG       0.095400
     22 C16          1.2350     2.2350    -4.2320 c3         1 POG      -0.078100
     23 C17         -0.2460     5.9060    -2.1180 c3         1 POG      -0.128100
     24 C18          3.0570     8.0900    -5.3550 c3         1 POG      -0.129100
     25 C19          7.5390     6.7400    -3.2920 c3         1 POG      -0.123100
     26 C20          8.9200     7.0160     0.9880 c3         1 POG      -0.130100
     27 C21          5.1810     3.5670     1.5260 c3         1 POG      -0.131100
     28 HOH         -0.3140    -0.8870     0.0590 ho         1 POG       0.401000
     29 H2           1.7870    -0.8890    -0.5030 h1         1 POG       0.038700
     30 H11          1.6030    -0.9130     1.9290 hc         1 POG       0.042367
     31 H12A         1.5040     0.8530     1.9630 hc         1 POG       0.042367
     32 H13          3.0010     0.0600     1.4520 hc         1 POG       0.042367
     33 H31          2.9880     1.2450    -0.7820 h1         1 POG       0.033200
     34 H32          1.5480     2.1270    -0.2510 h1         1 POG       0.033200
     35 H5           2.8950     2.3500    -2.8840 h1         1 POG       0.044700
     36 HO1          2.2100     6.1570     3.2390 ho         1 POG       0.393000
     37 H42          2.6820     4.2490     2.4830 h1         1 POG       0.040700
     38 H6           4.9550     4.8970     3.1860 h1         1 POG       0.030700
     39 H72          7.1200     4.9540     1.1630 h1         1 POG       0.028700
     40 H8           7.0440     7.9840     1.3470 h1         1 POG       0.048700
     41 H91          7.2010     9.0520    -0.7520 h1         1 POG       0.030200
     42 H92          8.6360     8.0950    -1.1500 h1         1 POG       0.030200
     43 H10          7.5030     8.8790    -3.1960 h1         1 POG       0.030700
     44 H111         5.4690     7.1350    -4.4630 h1         1 POG       0.031200
     45 H112         5.5750     8.8990    -4.5580 h1         1 POG       0.031200
     46 H12          3.3620     9.0910    -3.4880 h1         1 POG       0.040700
     47 H131         1.3030     7.0420    -4.0750 h1         1 POG       0.030700
     48 H132         1.4390     8.0370    -2.6170 h1         1 POG       0.030700
     49 H14          1.7100     6.0020    -1.2510 h1         1 POG       0.053700
     50 H151         0.2450     3.5540    -2.0190 h1         1 POG       0.032200
     51 H152         1.7710     3.6390    -1.1260 h1         1 POG       0.032200
     52 H161         0.1660     2.4050    -4.1950 hc         1 POG       0.046700
     53 H162         1.4300     1.2480    -4.6340 hc         1 POG       0.046700
     54 H163         1.6980     2.9810    -4.8660 hc         1 POG       0.046700
     55 H171        -0.6170     6.9170    -2.0080 hc         1 POG       0.044367
     56 H172        -0.5290     5.3210    -1.2500 hc         1 POG       0.044367
     57 H173        -0.6720     5.4590    -3.0080 hc         1 POG       0.044367
     58 H181         3.0140     7.0560    -5.6780 hc         1 POG       0.044033
     59 H182         3.6750     8.6570    -6.0400 hc         1 POG       0.044033
     60 H183         2.0570     8.5060    -5.3420 hc         1 POG       0.044033
     61 H191         6.8530     5.9480    -3.0190 hc         1 POG       0.045033
     62 H192         8.5360     6.4880    -2.9520 hc         1 POG       0.045033
     63 H193         7.5440     6.8580    -4.3690 hc         1 POG       0.045033
     64 H201         9.3150     8.0250     0.9680 hc         1 POG       0.042700
     65 H202         9.3130     6.4570     0.1470 hc         1 POG       0.042700
     66 H203         9.2130     6.5320     1.9120 hc         1 POG       0.042700
     67 H211         6.1510     3.3120     1.9350 hc         1 POG       0.044033
     68 H212         5.2600     3.6750     0.4510 hc         1 POG       0.044033
     69 H213         4.4730     2.7810     1.7580 hc         1 POG       0.044033
     70 H71          7.0270     5.8960     2.6590 h1         1 POG       0.028700
     71 O3           5.3550     5.9580     1.4690 os         1 POG      -0.377600
     72 H41          2.9430     5.0310     0.9170 h1         1 POG       0.040700
     73 O1           2.8140     6.3020     2.5300 oh         1 POG      -0.588800
@<TRIPOS>BOND
     1     1     2 1
     2     1    28 1
     3     2     3 1
     4     2     4 1
     5     2    29 1
     6     3    30 1
     7     3    31 1
     8     3    32 1
     9     4     5 1
    10     4    33 1
    11     4    34 1
    12     5     6 1
    13     6    21 1
    14     6    22 1
    15     6    35 1
    16    73     7 1
    17    73    36 1
    18     7     8 1
    19     7    72 1
    20     7    37 1
    21     8    71 1
    22     8    27 1
    23     8    38 1
    24    71     9 1
    25     9    10 1
    26     9    70 1
    27     9    39 1
    28    10    11 1
    29    10    26 1
    30    10    40 1
    31    11    12 1
    32    12    13 1
    33    12    41 1
    34    12    42 1
    35    13    14 1
    36    13    25 1
    37    13    43 1
    38    14    15 1
    39    15    16 1
    40    15    44 1
    41    15    45 1
    42    16    17 1
    43    16    24 1
    44    16    46 1
    45    17    18 1
    46    18    19 1
    47    18    47 1
    48    18    48 1
    49    19    20 1
    50    19    23 1
    51    19    49 1
    52    20    21 1
    53    21    50 1
    54    21    51 1
    55    22    52 1
    56    22    53 1
    57    22    54 1
    58    23    55 1
    59    23    56 1
    60    23    57 1
    61    24    58 1
    62    24    59 1
    63    24    60 1
    64    25    61 1
    65    25    62 1
    66    25    63 1
    67    26    64 1
    68    26    65 1
    69    26    66 1
    70    27    67 1
    71    27    68 1
    72    27    69 1
@<TRIPOS>SUBSTRUCTURE
     1 POG         1 TEMP              0 ****  ****    0 ROOT
