@<TRIPOS>MOLECULE
molecule
   48    48     1     0     0
SMALL
bcc


@<TRIPOS>ATOM
      1 CM           0.0000     0.0000     0.0000 c3         1 POI      -0.173100
      2 CT           1.5070     0.0000     0.0000 c          1 POI       0.659100
      3 OT           2.1140     0.0000     1.0500 o          1 POI      -0.628100
      4 N            2.1800    -0.0000    -1.1680 ns         1 POI      -0.539900
      5 CA           3.6450    -0.0010    -1.1680 c3         1 POI       0.005700
      6 C            4.1480     1.4150    -1.0450 c          1 POI       0.889600
      7 OA           5.4670     1.6580    -1.0240 o          1 POI      -0.853800
      8 OB           3.3630     2.3300    -0.9650 o          1 POI      -0.853800
      9 CB           4.1540    -0.6110    -2.4760 c3         1 POI      -0.075400
     10 CG           3.7490    -2.0840    -2.5430 c3         1 POI      -0.087400
     11 CD           4.2590    -2.6940    -3.8510 c3         1 POI       0.145800
     12 N4           3.8690    -4.1090    -3.9160 n7         1 POI      -0.769200
     13 C4A          4.3870    -4.6310    -5.1880 c3         1 POI       0.199100
     14 C4           4.0200    -6.0870    -5.3190 ca         1 POI      -0.090300
     15 C3           2.8250    -6.4700    -5.9210 ca         1 POI      -0.042200
     16 O3           1.9650    -5.5350    -6.4040 oh         1 POI      -0.530100
     17 C2           2.5250    -7.8210    -6.0230 ca         1 POI       0.339600
     18 C2A          1.2360    -8.2510    -6.6720 c3         1 POI      -0.123400
     19 N1           3.3560    -8.7320    -5.5570 nb         1 POI      -0.716000
     20 C6           4.4960    -8.4020    -4.9810 ca         1 POI       0.428200
     21 C5           4.8670    -7.0770    -4.8480 ca         1 POI      -0.119600
     22 C5A          6.1720    -6.7130    -4.1880 c3         1 POI       0.183700
     23 P            8.2270    -7.4430    -3.0890 p5         1 POI       1.144900
     24 OP1          8.9850    -6.5820    -4.0240 o          1 POI      -0.905167
     25 OP2          7.9010    -6.6210    -1.7440 o          1 POI      -0.905167
     26 OP3          9.1050    -8.7430    -2.7250 o          1 POI      -0.905167
     27 OP4          6.8500    -7.9050    -3.7840 os         1 POI      -0.548200
     28 HM1         -0.3610     0.5560    -0.8570 hc         1 POI       0.037700
     29 HM2         -0.3610    -1.0200    -0.0530 hc         1 POI       0.037700
     30 HM3         -0.3610     0.4640     0.9100 hc         1 POI       0.037700
     31 HN           1.6800     0.0580    -2.0330 hn         1 POI       0.291500
     32 HA           4.0070    -0.5870    -0.3320 h1         1 POI       0.086700
     33 HB1          5.2340    -0.5310    -2.5160 hc         1 POI       0.051700
     34 HB2          3.7220    -0.0780    -3.3150 hc         1 POI       0.051700
     35 HG1          2.6690    -2.1640    -2.5050 hc         1 POI       0.045700
     36 HG2          4.1800    -2.6160    -1.7040 hc         1 POI       0.045700
     37 HD1          5.3380    -2.6150    -3.8900 h1         1 POI       0.028700
     38 HD2          3.8270    -2.1620    -4.6900 h1         1 POI       0.028700
     39 HN4          2.8710    -4.1810    -3.9070 hn         1 POI       0.338800
     40 H4A1         3.9530    -4.0740    -6.0100 h1         1 POI       0.040700
     41 H4A2         5.4650    -4.5260    -5.2090 h1         1 POI       0.040700
     42 HO3          2.0760    -5.4570    -7.3370 ho         1 POI       0.393000
     43 H2A1         1.2790    -8.0440    -7.7350 hc         1 POI       0.028700
     44 H2A2         1.0900    -9.3130    -6.5170 hc         1 POI       0.028700
     45 H2A3         0.4100    -7.7050    -6.2320 hc         1 POI       0.028700
     46 H6           5.1500    -9.1800    -4.6070 h4         1 POI       0.072100
     47 H5A1         5.9770    -6.0960    -3.3190 h1         1 POI       0.078200
     48 H5A2         6.7900    -6.1650    -4.8880 h1         1 POI       0.078200
@<TRIPOS>BOND
     1     1     2 1
     2     1    28 1
     3     1    29 1
     4     1    30 1
     5     2     3 2
     6     2     4 1
     7     4     5 1
     8     4    31 1
     9     5     6 1
    10     5     9 1
    11     5    32 1
    12     6     7 1
    13     6     8 1
    14     9    10 1
    15     9    33 1
    16     9    34 1
    17    10    11 1
    18    10    35 1
    19    10    36 1
    20    11    12 1
    21    11    37 1
    22    11    38 1
    23    12    13 1
    24    12    39 1
    25    13    14 1
    26    13    40 1
    27    13    41 1
    28    14    15 ar
    29    14    21 ar
    30    15    16 1
    31    15    17 ar
    32    16    42 1
    33    17    18 1
    34    17    19 ar
    35    18    43 1
    36    18    44 1
    37    18    45 1
    38    19    20 ar
    39    20    21 ar
    40    20    46 1
    41    21    22 1
    42    22    27 1
    43    22    47 1
    44    22    48 1
    45    23    24 1
    46    23    25 1
    47    23    26 1
    48    23    27 1
@<TRIPOS>SUBSTRUCTURE
     1 POI         1 TEMP              0 ****  ****    0 ROOT
