@<TRIPOS>MOLECULE
POL
   12    11     1     0     0
SMALL
bcc


@<TRIPOS>ATOM
      1 O           0.0140    0.0000    0.0570 oh        1 POL     -0.602800
      2 C1          1.4310    0.0000   -0.0110 c3        1 POL      0.131400
      3 C2          1.9480    0.0000    1.4180 c3        1 POL     -0.085400
      4 C3          3.4530    0.0000    1.4430 c3        1 POL     -0.094100
      5 HO         -0.3050   -0.0000   -0.8520 ho        1 POL      0.398000
      6 H11         1.7880    0.9130   -0.5590 h1        1 POL      0.019700
      7 H12         1.7880   -0.9130   -0.5590 h1        1 POL      0.019700
      8 H21         1.5490   -0.9020    1.9520 hc        1 POL      0.054700
      9 H22         1.5490    0.9020    1.9520 hc        1 POL      0.054700
     10 H31         3.8580    0.9050    0.9290 hc        1 POL      0.034367
     11 H32         3.8200   -0.0000    2.4980 hc        1 POL      0.034367
     12 H33         3.8580   -0.9050    0.9290 hc        1 POL      0.034367
@<TRIPOS>BOND
     1    1    2 1   
     2    1    5 1   
     3    2    3 1   
     4    2    6 1   
     5    2    7 1   
     6    3    4 1   
     7    3    8 1   
     8    3    9 1   
     9    4   10 1   
    10    4   11 1   
    11    4   12 1   
@<TRIPOS>SUBSTRUCTURE
     1 POL         1 TEMP              0 ****  ****    0 ROOT
