@<TRIPOS>MOLECULE
molecule
   12    11     1     0     0
SMALL
bcc


@<TRIPOS>ATOM
      1 O            0.0000     0.0000     0.0000 oh         1 POL      -0.612800
      2 C1           1.4290     0.0000     0.0000 c3         1 POL       0.140400
      3 C2           1.9390     0.0000     1.4410 c3         1 POL      -0.083400
      4 C3           3.4690    -0.0000     1.4410 c3         1 POL      -0.092100
      5 HO          -0.3140     0.0000    -0.8890 ho         1 POL       0.401000
      6 H11          1.7900    -0.8840    -0.5110 h1         1 POL       0.018700
      7 H12          1.7900     0.8840    -0.5110 h1         1 POL       0.018700
      8 H21          1.5780    -0.8840     1.9520 hc         1 POL       0.052700
      9 H22          1.5780     0.8840     1.9520 hc         1 POL       0.052700
     10 H31          3.8300     0.8850     0.9300 hc         1 POL       0.034700
     11 H32          3.8300    -0.0000     2.4620 hc         1 POL       0.034700
     12 H33          3.8300    -0.8850     0.9300 hc         1 POL       0.034700
@<TRIPOS>BOND
     1     1     2 1
     2     1     5 1
     3     2     3 1
     4     2     6 1
     5     2     7 1
     6     3     4 1
     7     3     8 1
     8     3     9 1
     9     4    10 1
    10     4    11 1
    11     4    12 1
@<TRIPOS>SUBSTRUCTURE
     1 POL         1 TEMP              0 ****  ****    0 ROOT
