@<TRIPOS>MOLECULE
PON
   11    10     1     0     0
SMALL
bcc


@<TRIPOS>ATOM
      1 P1           0.0000     0.0000     0.0000 p5         1 PON       0.683900
      2 O1           1.5450     0.0000     0.0000 o          1 PON      -0.780167
      3 O2          -0.5370     0.0000     1.5180 o          1 PON      -0.780167
      4 O3          -0.5350    -1.3150    -0.7590 os         1 PON      -0.385800
      5 O4          -0.5150     1.2610    -0.7290 o          1 PON      -0.780167
      6 P2          -0.3140    -1.0670    -2.3340 p5         1 PON       0.672600
      7 O5           1.2530    -0.8370    -2.6250 oh         1 PON      -0.615400
      8 O6          -1.1420     0.2350    -2.7940 o          1 PON      -0.664500
      9 N7          -0.8120    -2.3050    -3.1290 n2         1 PON      -0.921700
     10 HO5          1.3850    -0.7060    -3.5500 ho         1 PON       0.331000
     11 H7          -0.3830    -2.5450    -4.0010 hn         1 PON       0.241400
@<TRIPOS>BOND
     1     1     2 1   
     2     1     3 1   
     3     1     4 1   
     4     1     5 1   
     5     4     6 1   
     6     6     7 1   
     7     6     8 1   
     8     6     9 2   
     9     7    10 1   
    10     9    11 1   
@<TRIPOS>SUBSTRUCTURE
     1 PON         1 TEMP              0 ****  ****    0 ROOT
