@<TRIPOS>MOLECULE
molecule
   75    79     1     0     0
SMALL
bcc


@<TRIPOS>ATOM
      1 C28          0.0000     0.0000     0.0000 c3         1 POO      -0.077400
      2 C29          1.5320     0.0000     0.0000 c3         1 POO      -0.077400
      3 C30          2.0330     0.0000     1.4450 c3         1 POO       0.135800
      4 N3           1.5730     1.2110     2.1300 n3         1 POO      -0.675600
      5 C31          2.0850     1.1390     3.5050 c3         1 POO       0.120100
      6 C27          0.1120     1.1330     2.2200 c3         1 POO       0.146800
      7 C26         -0.4970     1.1950     0.8190 c3         1 POO      -0.091700
      8 C25         -2.0230     1.1460     0.9210 c3         1 POO       0.114000
      9 N2          -2.4970     2.2890     1.7040 n          1 POO      -0.499800
     10 C24         -2.8270     3.5500     1.0340 c3         1 POO       0.093300
     11 C23         -2.6300     2.1820     3.0400 c          1 POO       0.638100
     12 O3          -2.3570     1.1400     3.5950 o          1 POO      -0.576100
     13 C22         -3.1170     3.3580     3.8460 c3         1 POO      -0.016700
     14 N1          -3.1740     2.9900     5.2620 na         1 POO      -0.050400
     15 C1          -2.1480     3.1370     6.1720 ca         1 POO      -0.035200
     16 C6          -0.8570     3.6260     6.0720 ca         1 POO      -0.133000
     17 C5          -0.0350     3.6450     7.1990 ca         1 POO      -0.076600
     18 C8           1.3400     4.1640     7.0960 c          1 POO       0.881200
     19 O2           1.7570     4.5750     6.0310 o          1 POO      -0.837300
     20 O1           2.1360     4.1840     8.1840 o          1 POO      -0.837300
     21 C4          -0.5120     3.1720     8.4290 ca         1 POO      -0.107000
     22 C3          -1.7810     2.6900     8.5370 ca         1 POO      -0.129000
     23 C2          -2.6190     2.6630     7.4140 ca         1 POO      -0.106800
     24 C7          -3.9520     2.2340     7.2090 cc         1 POO      -0.116400
     25 C16         -4.8680     1.6490     8.2530 c3         1 POO       0.008500
     26 C17         -4.2450     0.3720     8.8190 c3         1 POO      -0.072400
     27 C20         -5.1740    -0.2220     9.8810 c3         1 POO      -0.081900
     28 C21         -5.3720     0.7920    11.0090 c3         1 POO      -0.079400
     29 C19         -5.9960     2.0700    10.4430 c3         1 POO      -0.081900
     30 C18         -5.0670     2.6620     9.3820 c3         1 POO      -0.072400
     31 C9          -4.2620     2.4480     5.9050 cd         1 POO      -0.036300
     32 C10         -5.5610     2.1380     5.2720 ca         1 POO      -0.008800
     33 C11         -6.3150     3.1540     4.6840 ca         1 POO      -0.115000
     34 C12         -7.5270     2.8580     4.0950 ca         1 POO      -0.137000
     35 C13         -7.9960     1.5560     4.0870 ca         1 POO      -0.139000
     36 C14         -7.2540     0.5450     4.6690 ca         1 POO      -0.137000
     37 C15         -6.0380     0.8270     5.2570 ca         1 POO      -0.115000
     38 H281        -0.3620    -0.9190     0.4460 hc         1 POO       0.033200
     39 H282        -0.3620     0.0840    -1.0180 hc         1 POO       0.033200
     40 H291         1.8930     0.8870    -0.5070 hc         1 POO       0.040200
     41 H292         1.8930    -0.8870    -0.5070 hc         1 POO       0.040200
     42 H301         1.6470    -0.8720     1.9590 h1         1 POO       0.031200
     43 H302         3.1160    -0.0240     1.4480 h1         1 POO       0.031200
     44 H311         3.1570     0.9840     3.4840 h1         1 POO       0.046700
     45 H312         1.6120     0.3150     4.0240 h1         1 POO       0.046700
     46 H313         1.8650     2.0650     4.0220 h1         1 POO       0.046700
     47 H271        -0.2570     1.9650     2.8090 h1         1 POO       0.055700
     48 H272        -0.1690     0.1990     2.6920 h1         1 POO       0.055700
     49 H26         -0.1920     2.1150     0.3350 hc         1 POO       0.061700
     50 H251        -2.3230     0.2260     1.4070 h1         1 POO       0.053200
     51 H252        -2.4530     1.1860    -0.0730 h1         1 POO       0.053200
     52 H241        -3.8710     3.7860     1.2010 h1         1 POO       0.036367
     53 H242        -2.6450     3.4520    -0.0300 h1         1 POO       0.036367
     54 H243        -2.2090     4.3440     1.4340 h1         1 POO       0.036367
     55 H221        -4.1060     3.6440     3.5070 h1         1 POO       0.075200
     56 H222        -2.4370     4.1910     3.7170 h1         1 POO       0.075200
     57 H6          -0.5210     4.0840     5.1490 ha         1 POO       0.140000
     58 H4           0.1320     3.1900     9.3000 ha         1 POO       0.155000
     59 H3          -2.1420     2.3260     9.4910 ha         1 POO       0.110000
     60 H16         -5.8270     1.4140     7.8080 hc         1 POO       0.044700
     61 H171        -4.1070    -0.3450     8.0190 hc         1 POO       0.050200
     62 H172        -3.2880     0.6080     9.2690 hc         1 POO       0.050200
     63 H201        -6.1320    -0.4530     9.4310 hc         1 POO       0.031950
     64 H202        -4.7290    -1.1250    10.2820 hc         1 POO       0.031950
     65 H211        -4.4130     1.0270    11.4550 hc         1 POO       0.034700
     66 H212        -6.0320     0.3720    11.7580 hc         1 POO       0.034700
     67 H191        -6.9520     1.8340     9.9920 hc         1 POO       0.031950
     68 H192        -6.1330     2.7880    11.2420 hc         1 POO       0.031950
     69 H181        -4.1090     2.8930     9.8320 hc         1 POO       0.050200
     70 H182        -5.5110     3.5660     8.9810 hc         1 POO       0.050200
     71 H11         -5.9490     4.1730     4.6890 ha         1 POO       0.140500
     72 H12         -8.1120     3.6460     3.6380 ha         1 POO       0.122500
     73 H13         -8.9490     1.3290     3.6250 ha         1 POO       0.118000
     74 H14         -7.6260    -0.4730     4.6580 ha         1 POO       0.122500
     75 H15         -5.4580     0.0330     5.7120 ha         1 POO       0.140500
@<TRIPOS>BOND
     1     1     2 1
     2     1     7 1
     3     1    38 1
     4     1    39 1
     5     2     3 1
     6     2    40 1
     7     2    41 1
     8     3     4 1
     9     3    42 1
    10     3    43 1
    11     4     5 1
    12     4     6 1
    13     5    44 1
    14     5    45 1
    15     5    46 1
    16     6     7 1
    17     6    47 1
    18     6    48 1
    19     7     8 1
    20     7    49 1
    21     8     9 1
    22     8    50 1
    23     8    51 1
    24     9    10 1
    25     9    11 1
    26    10    52 1
    27    10    53 1
    28    10    54 1
    29    11    12 2
    30    11    13 1
    31    13    14 1
    32    13    55 1
    33    13    56 1
    34    14    15 1
    35    14    31 1
    36    15    16 ar
    37    15    23 ar
    38    16    17 ar
    39    16    57 1
    40    17    18 1
    41    17    21 ar
    42    18    19 1
    43    18    20 1
    44    21    22 ar
    45    21    58 1
    46    22    23 ar
    47    22    59 1
    48    23    24 1
    49    24    25 1
    50    24    31 2
    51    25    26 1
    52    25    30 1
    53    25    60 1
    54    26    27 1
    55    26    61 1
    56    26    62 1
    57    27    28 1
    58    27    63 1
    59    27    64 1
    60    28    29 1
    61    28    65 1
    62    28    66 1
    63    29    30 1
    64    29    67 1
    65    29    68 1
    66    30    69 1
    67    30    70 1
    68    31    32 1
    69    32    33 ar
    70    32    37 ar
    71    33    34 ar
    72    33    71 1
    73    34    35 ar
    74    34    72 1
    75    35    36 ar
    76    35    73 1
    77    36    37 ar
    78    36    74 1
    79    37    75 1
@<TRIPOS>SUBSTRUCTURE
     1 POO         1 TEMP              0 ****  ****    0 ROOT
