@<TRIPOS>MOLECULE
molecule
    9     8     1     0     0
SMALL
bcc


@<TRIPOS>ATOM
      1 P1           1.2930    -0.0040    -0.0730 p5         1 POP       1.227900
      2 O1           1.5530    -1.4830     0.2880 o          1 POP      -0.959333
      3 O2           2.5750     0.5940    -0.8420 o          1 POP      -0.959333
      4 O3           1.0430     0.8060     1.2190 o          1 POP      -0.959333
      5 O            0.0000     0.0970    -1.0270 os         1 POP      -0.699800
      6 P2          -1.2920     0.0010    -0.0710 p5         1 POP       1.227900
      7 O4          -1.4840    -1.4600     0.3930 o          1 POP      -0.959333
      8 O5          -2.5970     0.4820    -0.8820 o          1 POP      -0.959333
      9 O6          -1.0890     0.9100     1.1620 o          1 POP      -0.959333
@<TRIPOS>BOND
     1     1     2 1
     2     1     3 1
     3     1     4 1
     4     1     5 1
     5     5     6 1
     6     6     7 1
     7     6     8 1
     8     6     9 1
@<TRIPOS>SUBSTRUCTURE
     1 POP         1 TEMP              0 ****  ****    0 ROOT
