@<TRIPOS>MOLECULE
POP
    9     8     1     0     0
SMALL
bcc


@<TRIPOS>ATOM
      1 P1          1.6720   -0.0100    0.0270 p5        1 POP      1.493900
      2 O1          2.1550   -1.3350   -0.5570 o         1 POP     -1.021500
      3 O2          2.1620    1.1600   -0.8230 o         1 POP     -1.021500
      4 O3          2.1470    0.1420    1.4700 o         1 POP     -1.021500
      5 O           0.0000   -0.0060    0.0180 os        1 POP     -0.855800
      6 P2         -1.6720   -0.0030    0.0100 p5        1 POP      1.493900
      7 O4         -2.1610   -1.1730    0.8590 o         1 POP     -1.021500
      8 O5         -2.1470   -0.1540   -1.4330 o         1 POP     -1.021500
      9 O6         -2.1540    1.3220    0.5950 o         1 POP     -1.021500
@<TRIPOS>BOND
     1    1    2 1   
     2    1    3 1   
     3    1    4 1   
     4    1    5 1   
     5    5    6 1   
     6    6    7 1   
     7    6    8 1   
     8    6    9 1   
@<TRIPOS>SUBSTRUCTURE
     1 POP         1 TEMP              0 ****  ****    0 ROOT
