@<TRIPOS>MOLECULE
molecule
   70    72     1     0     0
SMALL
bcc


@<TRIPOS>ATOM
      1 C1           0.0000     0.0000     0.0000 ca         1 POS       0.110100
      2 C2           1.3880     0.0000     0.0000 ca         1 POS      -0.179000
      3 C3           2.0780     0.0000     1.1960 ca         1 POS      -0.094500
      4 C4           1.3860     0.0000     2.3940 ca         1 POS      -0.155000
      5 C5           0.0040     0.0000     2.3970 ca         1 POS      -0.094500
      6 C6          -0.6910     0.0050     1.2030 ca         1 POS      -0.179000
      7 O7          -0.6800     0.0000    -1.1760 os         1 POS      -0.221200
      8 C8           0.2440    -0.1060    -2.1650 ca         1 POS       0.145100
      9 C9           0.7040     1.0310    -2.8120 ca         1 POS      -0.164500
     10 C10          1.6430     0.9220    -3.8170 ca         1 POS      -0.020500
     11 C11          2.1270    -0.3210    -4.1790 ca         1 POS      -0.326500
     12 C12          1.6680    -1.4580    -3.5410 ca         1 POS      -0.020500
     13 C13          0.7320    -1.3530    -2.5310 ca         1 POS      -0.164500
     14 S14          3.3270    -0.4590    -5.4620 sy         1 POS       1.427200
     15 O15          3.1900     0.7170    -6.2470 o          1 POS      -0.628800
     16 O16          3.2190    -1.7890    -5.9510 o          1 POS      -0.628800
     17 N17          4.8220    -0.3590    -4.7570 n7         1 POS      -0.913100
     18 C18          5.2220    -1.3400    -3.7470 c3         1 POS       0.224800
     19 C19          6.6380    -1.0230    -3.2600 c3         1 POS       0.121100
     20 O20          7.5450    -1.0760    -4.3620 oh         1 POS      -0.590800
     21 C21          7.0550    -2.0480    -2.2050 c3         1 POS       0.106000
     22 N22          8.4100    -1.7440    -1.7380 ns         1 POS      -0.579900
     23 C23          8.9910    -2.5190    -0.8010 c          1 POS       0.648100
     24 O24          8.3910    -3.4700    -0.3450 o          1 POS      -0.606100
     25 C25         10.3840    -2.2080    -0.3210 c3         1 POS       0.036700
     26 C26         11.3550    -2.2650    -1.5020 c3         1 POS      -0.088400
     27 C27         12.7490    -1.8370    -1.0370 c3         1 POS      -0.074700
     28 C28         13.7520    -2.0520    -2.1710 c3         1 POS      -0.093100
     29 C29         12.7260    -0.3570    -0.6500 c3         1 POS      -0.093100
     30 N30         10.7850    -3.1890     0.6890 ns         1 POS      -0.555900
     31 C31         11.2980    -2.7770     1.8640 c          1 POS       0.678700
     32 O32         11.3530    -1.5900     2.1190 o          1 POS      -0.612100
     33 C33         11.7960    -3.7690     2.8450 ca         1 POS      -0.109600
     34 C34         12.3320    -3.3620     4.0700 ca         1 POS      -0.213800
     35 C35         12.7840    -4.3210     4.9550 ca         1 POS       0.413700
     36 N36         12.7140    -5.6030     4.6580 nb         1 POS      -0.675000
     37 C37         11.7360    -5.1390     2.5730 ca         1 POS      -0.213800
     38 C38         12.2160    -6.0290     3.5140 ca         1 POS       0.413700
     39 H2           1.9300    -0.0020    -0.9380 ha         1 POS       0.145500
     40 H3           3.1610    -0.0000     1.1970 ha         1 POS       0.134500
     41 H4           1.9290    -0.0020     3.3320 ha         1 POS       0.134000
     42 H5          -0.5350     0.0020     3.3370 ha         1 POS       0.134500
     43 H6          -1.7740     0.0050     1.2070 ha         1 POS       0.145500
     44 H9           0.3250     2.0060    -2.5280 ha         1 POS       0.154500
     45 H10          2.0030     1.8110    -4.3200 ha         1 POS       0.157000
     46 H12          2.0490    -2.4310    -3.8260 ha         1 POS       0.157000
     47 H13          0.3720    -2.2440    -2.0310 ha         1 POS       0.154500
     48 HN7          5.4540     0.3690    -5.0260 hn         1 POS       0.453800
     49 H181         5.2040    -2.3330    -4.1810 h1         1 POS       0.059700
     50 H182         4.5350    -1.2990    -2.9110 h1         1 POS       0.059700
     51 H19          6.6560    -0.0310    -2.8250 h1         1 POS       0.038700
     52 H20          7.9040    -0.2180    -4.5150 ho         1 POS       0.403000
     53 H211         6.3670    -2.0070    -1.3690 h1         1 POS       0.066700
     54 H212         7.0370    -3.0410    -2.6390 h1         1 POS       0.066700
     55 HN2          8.8920    -0.9430    -2.0930 hn         1 POS       0.315500
     56 H25         10.4020    -1.2160     0.1130 h1         1 POS       0.110700
     57 H261        11.3980    -3.2760    -1.8870 hc         1 POS       0.051700
     58 H262        11.0140    -1.5950    -2.2830 hc         1 POS       0.051700
     59 H27         13.0410    -2.4300    -0.1790 hc         1 POS       0.058700
     60 H281        13.7300    -3.0900    -2.4820 hc         1 POS       0.038033
     61 H282        14.7480    -1.8000    -1.8250 hc         1 POS       0.038033
     62 H283        13.4910    -1.4190    -3.0100 hc         1 POS       0.038033
     63 H291        12.1690    -0.2330     0.2710 hc         1 POS       0.038033
     64 H292        12.2510     0.2140    -1.4390 hc         1 POS       0.038033
     65 H293        13.7400    -0.0050    -0.5090 hc         1 POS       0.038033
     66 HN3         10.6520    -4.1660     0.5160 hn         1 POS       0.333500
     67 H34         12.3920    -2.3100     4.3210 ha         1 POS       0.150500
     68 H35         13.2010    -4.0150     5.9070 h4         1 POS       0.028100
     69 H37         11.3280    -5.4960     1.6350 ha         1 POS       0.150500
     70 H38         12.1760    -7.0930     3.3120 h4         1 POS       0.028100
@<TRIPOS>BOND
     1     1     2 ar
     2     1     6 ar
     3     1     7 1
     4     2     3 ar
     5     2    39 1
     6     3     4 ar
     7     3    40 1
     8     4     5 ar
     9     4    41 1
    10     5     6 ar
    11     5    42 1
    12     6    43 1
    13     7     8 1
    14     8     9 ar
    15     8    13 ar
    16     9    10 ar
    17     9    44 1
    18    10    11 ar
    19    10    45 1
    20    11    12 ar
    21    11    14 1
    22    12    13 ar
    23    12    46 1
    24    13    47 1
    25    14    15 2
    26    14    16 2
    27    14    17 1
    28    17    18 1
    29    17    48 1
    30    18    19 1
    31    18    49 1
    32    18    50 1
    33    19    20 1
    34    19    21 1
    35    19    51 1
    36    20    52 1
    37    21    22 1
    38    21    53 1
    39    21    54 1
    40    22    23 1
    41    22    55 1
    42    23    24 2
    43    23    25 1
    44    25    26 1
    45    25    30 1
    46    25    56 1
    47    26    27 1
    48    26    57 1
    49    26    58 1
    50    27    28 1
    51    27    29 1
    52    27    59 1
    53    28    60 1
    54    28    61 1
    55    28    62 1
    56    29    63 1
    57    29    64 1
    58    29    65 1
    59    30    31 1
    60    30    66 1
    61    31    32 2
    62    31    33 1
    63    33    34 ar
    64    33    37 ar
    65    34    35 ar
    66    34    67 1
    67    35    36 ar
    68    35    68 1
    69    36    38 ar
    70    37    38 ar
    71    37    69 1
    72    38    70 1
@<TRIPOS>SUBSTRUCTURE
     1 POS         1 TEMP              0 ****  ****    0 ROOT
