@<TRIPOS>MOLECULE
molecule
   32    32     1     0     0
SMALL
bcc


@<TRIPOS>ATOM
      1 P            0.0000     0.0000     0.0000 p5         1 POT       1.149200
      2 C1           1.7800     0.0000     0.0000 c3         1 POT      -0.309300
      3 O1          -0.6370     0.0000     1.3580 o          1 POT      -0.711300
      4 O2          -0.4290     1.2080    -0.9760 os         1 POT      -0.529200
      5 C2          -0.0080     2.5330    -0.6510 c3         1 POT       0.179100
      6 C3          -0.5360     3.4950    -1.7180 c3         1 POT      -0.072400
      7 C4          -0.0670     3.1190    -3.1170 c3         1 POT      -0.089100
      8 C5          -0.5480     2.8930     0.7300 c3         1 POT       0.085400
      9 O3          -0.1750     4.2270     1.0630 os         1 POT      -0.337900
     10 C6          -2.6280     4.9160     3.6890 ca         1 POT      -0.100000
     11 C7          -2.7320     6.3030     3.5870 ca         1 POT      -0.154000
     12 C8          -1.9780     6.9930     2.6380 ca         1 POT      -0.100000
     13 C9          -1.1190     6.2950     1.7900 ca         1 POT      -0.171500
     14 C10         -1.0190     4.9120     1.8960 ca         1 POT       0.122100
     15 C11         -1.7690     4.2180     2.8410 ca         1 POT      -0.171500
     16 Cl1         -0.5340    -1.6040    -1.0770 cl         1 POT      -0.189300
     17 H41          1.0150     3.0680    -3.1340 hc         1 POT       0.039367
     18 H42         -0.4770     2.1540    -3.3890 hc         1 POT       0.039367
     19 H43         -0.4040     3.8670    -3.8250 hc         1 POT       0.039367
     20 H31         -0.1910     4.4960    -1.4900 hc         1 POT       0.061700
     21 H32         -1.6190     3.4830    -1.6960 hc         1 POT       0.061700
     22 H2           1.0740     2.5730    -0.6360 h1         1 POT       0.048700
     23 H51         -0.1380     2.2110     1.4650 h1         1 POT       0.063700
     24 H52         -1.6280     2.8120     0.7260 h1         1 POT       0.063700
     25 H11         -1.6850     3.1410     2.9170 ha         1 POT       0.145000
     26 H7          -3.4000     6.8450     4.2460 ha         1 POT       0.133000
     27 H8          -2.0600     8.0700     2.5590 ha         1 POT       0.135500
     28 H9          -0.5320     6.8270     1.0510 ha         1 POT       0.145000
     29 H11A         2.1410     0.2540    -0.9890 hc         1 POT       0.095367
     30 H12          2.1410    -0.9840     0.2750 hc         1 POT       0.095367
     31 H13          2.1410     0.7300     0.7150 hc         1 POT       0.095367
     32 H6          -3.2140     4.3810     4.4260 ha         1 POT       0.135500
@<TRIPOS>BOND
     1     1     4 1
     2     1     2 1
     3     1     3 2
     4     1    16 1
     5     2    29 1
     6     2    30 1
     7     2    31 1
     8     4     5 1
     9     5     6 1
    10     5     8 1
    11     5    22 1
    12     6     7 1
    13     6    20 1
    14     6    21 1
    15     7    17 1
    16     7    18 1
    17     7    19 1
    18     8     9 1
    19     8    23 1
    20     8    24 1
    21     9    14 1
    22    10    15 ar
    23    10    11 ar
    24    10    32 1
    25    11    12 ar
    26    11    26 1
    27    12    13 ar
    28    12    27 1
    29    13    14 ar
    30    13    28 1
    31    14    15 ar
    32    15    25 1
@<TRIPOS>SUBSTRUCTURE
     1 POT         1 TEMP              0 ****  ****    0 ROOT
