@<TRIPOS>MOLECULE
POT
   32    32     1     0     0
SMALL
bcc


@<TRIPOS>ATOM
      1 P           1.2440    0.3810   -0.1470 p5        1 POT      1.341200
      2 C1          1.1050   -0.9660   -1.0600 c3        1 POT     -0.426300
      3 O1          2.4440    1.1980   -0.2740 o         1 POT     -0.767300
      4 O2         -0.0810    1.2300   -0.5050 os        1 POT     -0.573200
      5 C2         -0.0280    2.6440   -0.4130 c3        1 POT      0.176100
      6 C3         -0.4190    3.2570   -1.7550 c3        1 POT     -0.091400
      7 C4          0.6860    3.1960   -2.7750 c3        1 POT     -0.096100
      8 C5         -1.0420    3.0670    0.6680 c3        1 POT      0.109400
      9 O3         -0.7110    4.4230    0.9810 os        1 POT     -0.332900
     10 C6         -3.2650    5.1170    3.5800 ca        1 POT     -0.097000
     11 C7         -2.9090    6.4270    3.8930 ca        1 POT     -0.162000
     12 C8         -1.8360    7.0340    3.2360 ca        1 POT     -0.097000
     13 C9         -1.1180    6.3420    2.2690 ca        1 POT     -0.177500
     14 C10        -1.4860    5.0180    1.9600 ca        1 POT      0.124100
     15 C11        -2.5590    4.4010    2.6120 ca        1 POT     -0.177500
     16 CL1         0.9120   -0.2580    1.6920 cl        1 POT     -0.250300
     17 H41         0.8260    2.1550   -3.1540 hc        1 POT      0.039033
     18 H42         1.6550    3.5440   -2.3380 hc        1 POT      0.039033
     19 H43         0.4360    3.8490   -3.6470 hc        1 POT      0.039033
     20 H31        -1.3310    2.7340   -2.1450 hc        1 POT      0.061200
     21 H32        -0.6910    4.3290   -1.5580 hc        1 POT      0.061200
     22 H2          1.0140    2.9670   -0.1200 h1        1 POT      0.094700
     23 H51        -2.0880    3.0070    0.2710 h1        1 POT      0.052700
     24 H52        -0.9480    2.4290    1.5850 h1        1 POT      0.052700
     25 H11        -2.8520    3.3690    2.3790 ha        1 POT      0.143500
     26 H7         -3.4710    6.9830    4.6570 ha        1 POT      0.133000
     27 H8         -1.5550    8.0680    3.4850 ha        1 POT      0.133000
     28 H9         -0.2700    6.8040    1.7450 ha        1 POT      0.143500
     29 H11A        1.4820   -1.8990   -0.5700 hc        1 POT      0.123367
     30 H12         0.0480   -1.1840   -1.3610 hc        1 POT      0.123367
     31 H13         1.6830   -0.8720   -2.0160 hc        1 POT      0.123367
     32 H6         -4.1090    4.6370    4.0980 ha        1 POT      0.133000
@<TRIPOS>BOND
     1    1    2 1   
     2    1    3 2   
     3    1    4 1   
     4    1   16 1   
     5    2   29 1   
     6    2   30 1   
     7    2   31 1   
     8    4    5 1   
     9    5    6 1   
    10    5    8 1   
    11    5   22 1   
    12    6    7 1   
    13    6   20 1   
    14    6   21 1   
    15    7   17 1   
    16    7   18 1   
    17    7   19 1   
    18    8    9 1   
    19    8   23 1   
    20    8   24 1   
    21    9   14 1   
    22   10   11 ar  
    23   10   15 ar  
    24   10   32 1   
    25   11   12 ar  
    26   11   26 1   
    27   12   13 ar  
    28   12   27 1   
    29   13   14 ar  
    30   13   28 1   
    31   14   15 ar  
    32   15   25 1   
@<TRIPOS>SUBSTRUCTURE
     1 POT         1 TEMP              0 ****  ****    0 ROOT
