@<TRIPOS>MOLECULE
molecule
  134   133     1     0     0
SMALL
bcc


@<TRIPOS>ATOM
      1 N            0.0000     0.0000     0.0000 n4         1 POV      -0.568800
      2 P            2.0420    -3.8250     0.8770 p5         1 POV       1.328800
      3 C1           1.9520    -6.3730     0.0760 c3         1 POV       0.212400
      4 C2           1.4300    -7.2140    -1.0910 c3         1 POV       0.140100
      5 C3           1.9980    -6.6710    -2.4040 c3         1 POV       0.161400
      6 C210        -9.6550   -12.4130     4.0510 c2         1 POV      -0.234200
      7 C310         3.0150     4.6730    -9.9030 c3         1 POV      -0.082400
      8 C11          1.9790    -1.1540     0.8660 c3         1 POV       0.200400
      9 O11          1.6410    -4.9970    -0.1520 os         1 POV      -0.590200
     10 C211       -10.2500   -11.0390     4.2160 c3         1 POV       0.069800
     11 C311         3.6100     5.1430   -11.2320 c3         1 POV      -0.082400
     12 C12          1.4690     0.0000     0.0000 c3         1 POV       0.093800
     13 O12          1.6540    -2.3980     0.2410 os         1 POV      -0.611200
     14 C212       -11.7760   -11.1440     4.2580 c3         1 POV      -0.098400
     15 C312         3.3140     6.6320   -11.4250 c3         1 POV      -0.082400
     16 C13         -0.4900     0.0000     1.3850 c3         1 POV       0.097100
     17 O13          1.2770    -4.0220     2.2050 o          1 POV      -0.799000
     18 C213       -12.3800    -9.7490     4.4260 c3         1 POV      -0.090400
     19 C313         3.9100     7.1020   -12.7550 c3         1 POV      -0.082400
     20 C14         -0.4900     1.1990    -0.6920 c3         1 POV       0.097100
     21 O14          3.5620    -3.8750     1.1460 o          1 POV      -0.799000
     22 C214       -13.9060    -9.8550     4.4670 c3         1 POV      -0.079400
     23 C314         3.6140     8.5910   -12.9470 c3         1 POV      -0.081400
     24 C15         -0.4900    -1.2000    -0.6920 c3         1 POV       0.097100
     25 C215       -14.5090    -8.4590     4.6360 c3         1 POV      -0.082400
     26 C315         4.2090     9.0610   -14.2760 c3         1 POV      -0.084400
     27 C216       -16.0350    -8.5650     4.6770 c3         1 POV      -0.081400
     28 C316         3.9130    10.5490   -14.4700 c3         1 POV      -0.092100
     29 C217       -16.6390    -7.1700     4.8450 c3         1 POV      -0.084400
     30 C218       -18.1650    -7.2750     4.8870 c3         1 POV      -0.092100
     31 O21         -0.0200    -7.1490    -1.1260 os         1 POV      -0.411900
     32 C22         -2.1960    -8.0710    -0.4140 c3         1 POV      -0.125400
     33 O22         -0.0840    -8.9170     0.1980 o          1 POV      -0.556000
     34 C23         -2.7050    -9.2230     0.4540 c3         1 POV      -0.072400
     35 C24         -4.2340    -9.2180     0.4640 c3         1 POV      -0.084400
     36 C25         -4.7430   -10.3710     1.3330 c3         1 POV      -0.078400
     37 C26         -6.2730   -10.3660     1.3440 c3         1 POV      -0.090400
     38 C27         -6.7800   -11.5190     2.2120 c3         1 POV      -0.097400
     39 C28         -8.3110   -11.5130     2.2230 c3         1 POV       0.065800
     40 C29         -8.8110   -12.6500     3.0780 c2         1 POV      -0.228200
     41 C31          2.1100    -4.6270    -3.6240 c          1 POV       0.627100
     42 O31          1.6800    -5.2580    -2.5210 os         1 POV      -0.375900
     43 C32          1.8180    -3.1600    -3.8150 c3         1 POV      -0.126400
     44 O32          2.7300    -5.2330    -4.4650 o          1 POV      -0.565000
     45 C33          2.4130    -2.6900    -5.1430 c3         1 POV      -0.074400
     46 C34          2.1170    -1.2020    -5.3370 c3         1 POV      -0.083400
     47 C35          2.7120    -0.7320    -6.6660 c3         1 POV      -0.080400
     48 C36          2.4160     0.7570    -6.8590 c3         1 POV      -0.082400
     49 C37          3.0110     1.2270    -8.1870 c3         1 POV      -0.081400
     50 C38          2.7150     2.7150    -8.3820 c3         1 POV      -0.082400
     51 C39          3.3110     3.1850    -9.7100 c3         1 POV      -0.081400
     52 H29         -9.3840   -12.2900     2.2320 ha         1 POV       0.069000
     53 H1           1.4830    -6.7020     0.9960 h1         1 POV       0.053700
     54 H1A          3.0250    -6.4930     0.1560 h1         1 POV       0.053700
     55 H2           1.7420    -8.2430    -0.9620 h1         1 POV       0.084700
     56 H3           1.5610    -7.2100    -3.2360 h1         1 POV       0.056700
     57 H3A          3.0730    -6.8020    -2.4140 h1         1 POV       0.056700
     58 H310         3.4560     5.2370    -9.0900 hc         1 POV       0.039700
     59 H31A         1.9430     4.8310    -9.9120 hc         1 POV       0.039700
     60 H210        -9.1240   -11.6320     4.5810 ha         1 POV       0.069000
     61 H11          1.5110    -1.1070     1.8420 h1         1 POV       0.071200
     62 H11A         3.0540    -1.0750     0.9760 h1         1 POV       0.071200
     63 H211        -9.8930   -10.6000     5.1400 hc         1 POV       0.043700
     64 H21A        -9.9540   -10.4150     3.3820 hc         1 POV       0.043700
     65 H311         4.6820     4.9870   -11.2220 hc         1 POV       0.042200
     66 H31B         3.1700     4.5790   -12.0440 hc         1 POV       0.042200
     67 H12          1.8300    -0.1220    -1.0140 hx         1 POV       0.092200
     68 H12A         1.8300     0.9390     0.4010 hx         1 POV       0.092200
     69 H22         -2.5510    -7.1300    -0.0100 hc         1 POV       0.067700
     70 H212       -12.0720   -11.7690     5.0920 hc         1 POV       0.055200
     71 H22A        -2.5650    -8.1910    -1.4260 hc         1 POV       0.067700
     72 H21B       -12.1330   -11.5830     3.3340 hc         1 POV       0.055200
     73 H32          0.7460    -3.0030    -3.8230 hc         1 POV       0.061200
     74 H312         2.2420     6.7880   -11.4350 hc         1 POV       0.040200
     75 H32A         2.2590    -2.5960    -3.0020 hc         1 POV       0.061200
     76 H31C         3.7540     7.1960   -10.6120 hc         1 POV       0.040200
     77 H13         -1.5290     0.3050     1.4010 hx         1 POV       0.095478
     78 H13A        -0.4000    -0.9970     1.8000 hx         1 POV       0.095478
     79 H13B         0.0990     0.6910     1.9760 hx         1 POV       0.095478
     80 H23         -2.3500   -10.1640     0.0500 hc         1 POV       0.061200
     81 H213       -12.0840    -9.1250     3.5920 hc         1 POV       0.038200
     82 H23A        -2.3360    -9.1030     1.4660 hc         1 POV       0.061200
     83 H21C       -12.0230    -9.3100     5.3500 hc         1 POV       0.038200
     84 H33          3.4850    -2.8470    -5.1340 hc         1 POV       0.063700
     85 H313         3.4700     6.5380   -13.5680 hc         1 POV       0.041700
     86 H33A         1.9730    -3.2550    -5.9560 hc         1 POV       0.063700
     87 H31D         4.9820     6.9450   -12.7450 hc         1 POV       0.041700
     88 H14         -0.1770     2.0830    -0.1490 hx         1 POV       0.095478
     89 H14A        -0.0830     1.2290    -1.6950 hx         1 POV       0.095478
     90 H14B        -1.5720     1.1710    -0.7420 hx         1 POV       0.095478
     91 H24         -4.6020    -9.3380    -0.5470 hc         1 POV       0.037200
     92 H214       -14.2620   -10.2930     3.5430 hc         1 POV       0.043700
     93 H24A        -4.5890    -8.2780     0.8680 hc         1 POV       0.037200
     94 H21D       -14.2020   -10.4800     5.3010 hc         1 POV       0.043700
     95 H34          2.5570    -0.6370    -4.5240 hc         1 POV       0.029700
     96 H314         2.5420     8.7480   -12.9560 hc         1 POV       0.040700
     97 H34A         1.0450    -1.0460    -5.3460 hc         1 POV       0.029700
     98 H31E         4.0540     9.1550   -12.1340 hc         1 POV       0.040700
     99 H15         -1.4710    -1.0020    -1.1080 hx         1 POV       0.095478
    100 H15A        -0.5560    -2.0210     0.0110 hx         1 POV       0.095478
    101 H15B         0.1940    -1.4610    -1.4910 hx         1 POV       0.095478
    102 H25         -4.3870   -11.3110     0.9290 hc         1 POV       0.047200
    103 H215       -14.2130    -7.8340     3.8020 hc         1 POV       0.040200
    104 H25A        -4.3740   -10.2510     2.3450 hc         1 POV       0.047200
    105 H21E       -14.1530    -8.0210     5.5600 hc         1 POV       0.040200
    106 H35          2.2710    -1.2960    -7.4790 hc         1 POV       0.048700
    107 H315         5.2810     8.9040   -14.2670 hc         1 POV       0.040700
    108 H35A         3.7840    -0.8890    -6.6570 hc         1 POV       0.048700
    109 H31F         3.7690     8.4960   -15.0890 hc         1 POV       0.040700
    110 H26         -6.6410   -10.4870     0.3320 hc         1 POV       0.037200
    111 H216       -16.3920    -9.0040     3.7530 hc         1 POV       0.042200
    112 H26A        -6.6280    -9.4260     1.7480 hc         1 POV       0.037200
    113 H21F       -16.3320    -9.1900     5.5110 hc         1 POV       0.042200
    114 H36          2.8570     1.3210    -6.0460 hc         1 POV       0.035700
    115 H316         2.8410    10.7070   -14.4680 hc         1 POV       0.032700
    116 H36A         1.3450     0.9140    -6.8680 hc         1 POV       0.035700
    117 H31G         4.3620    11.1150   -13.6630 hc         1 POV       0.032700
    118 H31H         4.3250    10.8790   -15.4160 hc         1 POV       0.032700
    119 H27         -6.4110   -11.3990     3.2230 hc         1 POV       0.056700
    120 H217       -16.3430    -6.5460     4.0110 hc         1 POV       0.039200
    121 H27A        -6.4250   -12.4590     1.8070 hc         1 POV       0.056700
    122 H21G       -16.2820    -6.7310     5.7690 hc         1 POV       0.039200
    123 H37          4.0830     1.0700    -8.1780 hc         1 POV       0.045200
    124 H37A         2.5700     0.6620    -9.0000 hc         1 POV       0.045200
    125 H28         -8.6650   -10.5730     2.6280 hc         1 POV       0.043200
    126 H218       -18.5940    -6.2820     4.9420 hc         1 POV       0.032700
    127 H28A        -8.6800   -11.6320     1.2110 hc         1 POV       0.043200
    128 H21H       -18.5170    -7.7720     3.9910 hc         1 POV       0.032700
    129 H21J       -18.4640    -7.8460     5.7580 hc         1 POV       0.032700
    130 H38          1.6430     2.8720    -8.3910 hc         1 POV       0.038700
    131 H38A         3.1560     3.2800    -7.5690 hc         1 POV       0.038700
    132 H39          4.3820     3.0280    -9.7020 hc         1 POV       0.043200
    133 H39A         2.8700     2.6210   -10.5230 hc         1 POV       0.043200
    134 C21         -0.6890    -8.0760    -0.4250 c          1 POV       0.631100
@<TRIPOS>BOND
     1     1    12 1
     2     1    16 1
     3     1    20 1
     4     1    24 1
     5     2     9 1
     6     2    13 1
     7     2    17 1
     8     2    21 1
     9     3     4 1
    10     3     9 1
    11     3    53 1
    12     3    54 1
    13     4     5 1
    14     4    31 1
    15     4    55 1
    16     5    42 1
    17     5    56 1
    18     5    57 1
    19     6    10 1
    20     6    40 2
    21     6    60 1
    22     7    11 1
    23     7    51 1
    24     7    58 1
    25     7    59 1
    26     8    12 1
    27     8    13 1
    28     8    61 1
    29     8    62 1
    30    10    14 1
    31    10    63 1
    32    10    64 1
    33    11    15 1
    34    11    65 1
    35    11    66 1
    36    12    67 1
    37    12    68 1
    38    14    18 1
    39    14    70 1
    40    14    72 1
    41    15    19 1
    42    15    74 1
    43    15    76 1
    44    16    77 1
    45    16    78 1
    46    16    79 1
    47    18    22 1
    48    18    81 1
    49    18    83 1
    50    19    23 1
    51    19    85 1
    52    19    87 1
    53    20    88 1
    54    20    89 1
    55    20    90 1
    56    22    25 1
    57    22    92 1
    58    22    94 1
    59    23    26 1
    60    23    96 1
    61    23    98 1
    62    24    99 1
    63    24   100 1
    64    24   101 1
    65    25    27 1
    66    25   103 1
    67    25   105 1
    68    26    28 1
    69    26   107 1
    70    26   109 1
    71    27    29 1
    72    27   111 1
    73    27   113 1
    74    28   115 1
    75    28   117 1
    76    28   118 1
    77    29    30 1
    78    29   120 1
    79    29   122 1
    80    30   126 1
    81    30   128 1
    82    30   129 1
    83   134    31 1
    84   134    32 1
    85   134    33 2
    86    32    34 1
    87    32    69 1
    88    32    71 1
    89    34    35 1
    90    34    80 1
    91    34    82 1
    92    35    36 1
    93    35    91 1
    94    35    93 1
    95    36    37 1
    96    36   102 1
    97    36   104 1
    98    37    38 1
    99    37   110 1
   100    37   112 1
   101    38    39 1
   102    38   119 1
   103    38   121 1
   104    39    40 1
   105    39   125 1
   106    39   127 1
   107    40    52 1
   108    41    42 1
   109    41    43 1
   110    41    44 2
   111    43    45 1
   112    43    73 1
   113    43    75 1
   114    45    46 1
   115    45    84 1
   116    45    86 1
   117    46    47 1
   118    46    95 1
   119    46    97 1
   120    47    48 1
   121    47   106 1
   122    47   108 1
   123    48    49 1
   124    48   114 1
   125    48   116 1
   126    49    50 1
   127    49   123 1
   128    49   124 1
   129    50    51 1
   130    50   130 1
   131    50   131 1
   132    51   132 1
   133    51   133 1
@<TRIPOS>SUBSTRUCTURE
     1 POV         1 TEMP              0 ****  ****    0 ROOT
