@<TRIPOS>MOLECULE
molecule
   54    57     1     0     0
SMALL
bcc


@<TRIPOS>ATOM
      1 C1           0.0000     0.0000     0.0000 ca         1 POX      -0.097300
      2 C2           1.3820     0.0000     0.0000 ca         1 POX      -0.140000
      3 C3           2.0730     0.0000     1.2000 ca         1 POX       0.131900
      4 C7          -0.7520    -0.0000    -1.3060 c3         1 POX       0.133600
      5 C8          -0.6540    -3.3310    -2.7210 cc         1 POX       0.380800
      6 C9          -4.0270    -4.1050    -1.0920 ca         1 POX       0.098600
      7 C10         -4.1860    -2.8560    -0.4910 ca         1 POX      -0.109000
      8 C11         -3.2380    -1.8840    -0.6410 ca         1 POX      -0.143000
      9 C12         -2.0970    -2.1320    -1.4000 ca         1 POX      -0.024200
     10 C13         -1.9270    -3.3890    -2.0100 ca         1 POX      -0.237900
     11 C14         -2.9060    -4.3770    -1.8500 ca         1 POX      -0.048000
     12 C15         -4.9160    -6.7040    -4.1060 ca         1 POX       0.737900
     13 C16         -5.2780    -5.9780    -1.9490 ca         1 POX       0.743200
     14 C20         -9.4890    -9.3030     0.8490 c3         1 POX       0.157400
     15 C21        -10.1510    -9.3970     2.2250 c3         1 POX       0.136400
     16 C22        -11.5270    -8.1720     3.7590 c3         1 POX       0.128700
     17 C4           1.3780     0.0020     2.3990 ca         1 POX      -0.158000
     18 C5          -0.0040     0.0020     2.3950 ca         1 POX      -0.105000
     19 C6          -0.6930    -0.0040     1.1970 ca         1 POX      -0.127000
     20 F1           3.4240    -0.0000     1.2030 f          1 POX      -0.138900
     21 N1          -0.9960    -1.3820    -1.7280 na         1 POX       0.056900
     22 N2          -0.1450    -2.1480    -2.5310 nd         1 POX      -0.498100
     23 N4          -5.7710    -7.6990    -3.9820 nb         1 POX      -0.804000
     24 N5          -4.6690    -5.8600    -3.1250 nb         1 POX      -0.811000
     25 C17         -6.2010    -7.0250    -1.7650 ca         1 POX      -0.456500
     26 C18         -6.4310    -7.8980    -2.8430 ca         1 POX       0.781200
     27 N7          -7.8240    -8.1040    -0.3680 n2         1 POX      -0.425200
     28 O1          -8.5010    -8.2730     0.8650 os         1 POX      -0.207300
     29 O2         -10.8680    -8.1890     2.4920 os         1 POX      -0.421600
     30 H2           1.9240    -0.0010    -0.9380 ha         1 POX       0.155000
     31 HN6         -8.2750    -8.8270    -3.0150 hn         1 POX       0.446300
     32 HN6A        -7.0090    -9.8370    -2.3980 hn         1 POX       0.446300
     33 H7          -0.1660     0.5090    -2.0610 h1         1 POX       0.071200
     34 H7A         -1.6990     0.5110    -1.1780 h1         1 POX       0.071200
     35 H8          -0.2100    -4.1300    -3.3030 h4         1 POX       0.064800
     36 H10         -5.0700    -2.6550     0.1010 ha         1 POX       0.133000
     37 H11         -3.3750    -0.9190    -0.1680 ha         1 POX       0.129000
     38 H14         -2.7840    -5.3470    -2.3160 ha         1 POX       0.162000
     39 H15         -4.3990    -6.5750    -5.0490 h5         1 POX       0.060100
     40 H19         -6.6500    -6.5720     0.3630 h4         1 POX      -0.012200
     41 H20        -10.2390    -9.0730     0.1020 h1         1 POX       0.043200
     42 H20A        -9.0200   -10.2500     0.6090 h1         1 POX       0.043200
     43 H21        -10.8380   -10.2350     2.2390 h1         1 POX       0.034700
     44 H21A        -9.3910    -9.5400     2.9830 h1         1 POX       0.034700
     45 H22        -10.7950    -8.2900     4.5490 h1         1 POX       0.030033
     46 H22A       -12.2420    -8.9850     3.8060 h1         1 POX       0.030033
     47 H22B       -12.0450    -7.2290     3.8840 h1         1 POX       0.030033
     48 H4           1.9180     0.0040     3.3380 ha         1 POX       0.146000
     49 H5          -0.5480     0.0010     3.3320 ha         1 POX       0.138000
     50 H6          -1.7760    -0.0040     1.1950 ha         1 POX       0.133000
     51 HN3         -5.5000    -5.1640    -0.0560 hn         1 POX       0.459800
     52 N3          -5.0110    -5.0880    -0.9250 nu         1 POX      -0.759300
     53 C19         -6.9030    -7.2000    -0.4830 ce         1 POX       0.443800
     54 N6          -7.3250    -8.9450    -2.7230 nv         1 POX      -1.065500
@<TRIPOS>BOND
     1     1     2 ar
     2     1     4 1
     3     1    19 ar
     4     2     3 ar
     5     3    17 ar
     6     3    20 1
     7    54    26 1
     8     4    21 1
     9     5    10 1
    10     5    22 2
    11     6     7 ar
    12     6    11 ar
    13     6    52 1
    14     7     8 ar
    15     8     9 ar
    16     9    10 ar
    17     9    21 1
    18    10    11 ar
    19    12    23 ar
    20    12    24 ar
    21    13    52 1
    22    13    24 ar
    23    13    25 ar
    24    53    25 1
    25    53    27 2
    26    14    15 1
    27    14    28 1
    28    15    29 1
    29    16    29 1
    30    17    18 ar
    31    18    19 ar
    32    21    22 1
    33    23    26 ar
    34    25    26 ar
    35    27    28 1
    36     2    30 1
    37    54    31 1
    38    54    32 1
    39     4    33 1
    40     4    34 1
    41     5    35 1
    42     7    36 1
    43     8    37 1
    44    11    38 1
    45    12    39 1
    46    53    40 1
    47    14    41 1
    48    14    42 1
    49    15    43 1
    50    15    44 1
    51    16    45 1
    52    16    46 1
    53    16    47 1
    54    17    48 1
    55    18    49 1
    56    19    50 1
    57    52    51 1
@<TRIPOS>SUBSTRUCTURE
     1 POX         1 TEMP              0 ****  ****    0 ROOT
