@<TRIPOS>MOLECULE
POX
   54    58     1     0     0
SMALL
bcc


@<TRIPOS>ATOM
      1 C1           0.0000     0.0000     0.0000 ca         1 POX      -0.101000
      2 C2           1.3820     0.0000     0.0000 ca         1 POX      -0.105000
      3 C3           2.0730     0.0000     1.2000 ca         1 POX       0.070000
      4 C7          -0.7520    -0.0000    -1.3060 c3         1 POX      -0.002000
      5 C8          -0.6540    -3.3310    -2.7210 c2         1 POX      -0.060000
      6 C9          -4.0270    -4.1050    -1.0920 ca         1 POX      -0.161000
      7 C10         -4.1860    -2.8560    -0.4910 ca         1 POX      -0.069000
      8 C11         -3.2380    -1.8840    -0.6410 ca         1 POX      -0.109000
      9 C12         -2.0970    -2.1320    -1.4000 ca         1 POX      -0.122000
     10 C13         -1.9270    -3.3890    -2.0100 ca         1 POX      -0.168000
     11 C14         -2.9060    -4.3770    -1.8500 ca         1 POX      -0.009000
     12 C15         -4.9160    -6.7040    -4.1060 c2         1 POX       0.057000
     13 C16         -5.2780    -5.9780    -1.9490 c2         1 POX       0.061000
     14 C20         -9.4890    -9.3030     0.8490 c3         1 POX       0.056000
     15 C21        -10.1510    -9.3970     2.2250 c3         1 POX       0.058000
     16 C22        -11.5270    -8.1720     3.7590 c3         1 POX       0.065000
     17 C4           1.3780     0.0020     2.3990 ca         1 POX      -0.124000
     18 C5          -0.0040     0.0020     2.3950 ca         1 POX      -0.075000
     19 C6          -0.6930    -0.0040     1.1970 ca         1 POX      -0.100000
     20 F1           3.4240    -0.0000     1.2030 f          1 POX      -0.092000
     21 N1          -0.9960    -1.3820    -1.7280 na         1 POX       0.210000
     22 N2          -0.1450    -2.1480    -2.5310 n2         1 POX      -0.152000
     23 N4          -5.7710    -7.6990    -3.9820 n2         1 POX      -0.190000
     24 N5          -4.6690    -5.8600    -3.1250 n2         1 POX      -0.198000
     25 C17         -6.2010    -7.0250    -1.7650 c3         1 POX      -0.335000
     26 C18         -6.4310    -7.8980    -2.8430 c2         1 POX       0.072000
     27 N7          -7.8240    -8.1040    -0.3680 n2         1 POX       0.073000
     28 O1          -8.5010    -8.2730     0.8650 os         1 POX      -0.175000
     29 O2         -10.8680    -8.1890     2.4920 os         1 POX      -0.264000
     30 H2           1.9240    -0.0010    -0.9380 ha         1 POX       0.130000
     31 HN6         -8.2840    -8.8150    -2.9780 hn         1 POX       0.085500
     32 HN6A        -7.0020    -9.8480    -2.4360 hn         1 POX       0.085500
     33 H7          -0.1660     0.5090    -2.0610 h1         1 POX       0.077500
     34 H7A         -1.6990     0.5110    -1.1780 h1         1 POX       0.077500
     35 H8          -0.2100    -4.1300    -3.3030 h4         1 POX       0.145000
     36 H10         -5.0700    -2.6550     0.1010 ha         1 POX       0.109000
     37 H11         -3.3750    -0.9190    -0.1680 ha         1 POX       0.106000
     38 H14         -2.7840    -5.3470    -2.3160 ha         1 POX       0.133000
     39 H15         -4.3990    -6.5750    -5.0490 h5         1 POX       0.133000
     40 H19         -6.1080    -7.8450    -0.8390 DU         1 POX       0.341000
     41 H20        -10.2390    -9.0730     0.1020 h1         1 POX       0.044000
     42 H20A        -9.0200   -10.2500     0.6090 h1         1 POX       0.044000
     43 H21        -10.8380   -10.2350     2.2390 h1         1 POX       0.037000
     44 H21A        -9.3910    -9.5400     2.9830 h1         1 POX       0.037000
     45 H22        -12.2420    -8.9850     3.8050 h1         1 POX       0.026333
     46 H22A       -12.0450    -7.2290     3.8850 h1         1 POX       0.026333
     47 H22B       -10.7950    -8.2900     4.5490 h1         1 POX       0.026333
     48 H4           1.9180     0.0040     3.3380 ha         1 POX       0.120000
     49 H5          -0.5480     0.0010     3.3320 ha         1 POX       0.108000
     50 H6          -1.7760    -0.0040     1.1950 ha         1 POX       0.110000
     51 HN3         -5.5000    -5.1630    -0.0560 hn         1 POX       0.118000
     52 N3          -5.0110    -5.0880    -0.9250 nu         1 POX       0.253000
     53 C19         -6.9030    -7.2000    -0.4830 c2         1 POX      -0.427000
     54 N6          -7.3250    -8.9450    -2.7230 n8         1 POX      -0.052000
@<TRIPOS>BOND
     1     1     2 1   
     2     1     4 1   
     3     1    19 1   
     4     2     3 1   
     5     2    30 1   
     6     3    17 1   
     7     3    20 1   
     8     4    21 1   
     9     4    33 1   
    10     4    34 1   
    11     5    10 1   
    12     5    22 1   
    13     5    35 1   
    14     6     7 1   
    15     6    11 1   
    16     6    52 1   
    17     7     8 1   
    18     7    36 1   
    19     8     9 1   
    20     8    37 1   
    21     9    10 1   
    22     9    21 1   
    23    10    11 1   
    24    11    38 1   
    25    12    23 1   
    26    12    24 1   
    27    12    39 1   
    28    13    24 1   
    29    13    25 1   
    30    13    52 1   
    31    14    15 1   
    32    14    28 1   
    33    14    41 1   
    34    14    42 1   
    35    15    29 1   
    36    15    43 1   
    37    15    44 1   
    38    16    29 1   
    39    16    45 1   
    40    16    46 1   
    41    16    47 1   
    42    17    18 1   
    43    17    48 1   
    44    18    19 1   
    45    18    49 1   
    46    19    50 1   
    47    21    22 1   
    48    23    26 1   
    49    25    26 1   
    50    25    40 1   
    51    25    53 1   
    52    26    54 1   
    53    27    28 1   
    54    27    53 1   
    55    31    54 1   
    56    32    54 1   
    57    40    53 1   
    58    51    52 1   
@<TRIPOS>SUBSTRUCTURE
     1 POX         1 TEMP              0 ****  ****    0 ROOT
