@<TRIPOS>MOLECULE
POY
   44    45     1     0     0
SMALL
bcc


@<TRIPOS>ATOM
      1 N1           0.0000     0.0000     0.0000 n          1 POY      -0.081400
      2 C2           1.3490     0.0000     0.0000 c          1 POY       0.686100
      3 C3           2.0400     0.0000     1.2310 cc         1 POY      -0.553200
      4 C4           1.3120    -0.0000     2.4150 cd         1 POY       0.324200
      5 N5          -0.0720    -0.0010     2.3490 n          1 POY      -0.004300
      6 C6          -0.6920    -0.0000     1.1530 c          1 POY       0.597500
      7 N7           3.3700     0.0010     1.5970 na         1 POY       0.387100
      8 C8           3.4090     0.0000     2.9430 cc         1 POY       0.261400
      9 N9           2.1900    -0.0000     3.4200 nd         1 POY      -0.630000
     10 C10         -0.7230     0.0070    -1.2740 c3         1 POY       0.039000
     11 C11         -0.9730    -1.4340    -1.7250 c3         1 POY      -0.049400
     12 C12         -1.7270    -1.4270    -3.0570 c3         1 POY      -0.013400
     13 C13         -1.9790    -2.8670    -3.5070 c3         1 POY      -0.123400
     14 C14         -2.7220    -2.8610    -4.8190 c          1 POY       0.600100
     15 C15         -3.0930    -4.1620    -5.4810 c3         1 POY      -0.092100
     16 O16         -3.0190    -1.8120    -5.3390 o          1 POY      -0.556100
     17 O17          1.9640     0.0000    -1.0510 o          1 POY      -0.689500
     18 O18         -1.9070    -0.0010     1.1150 o          1 POY      -0.706500
     19 C19         -0.8630    -0.0010     3.5820 c3         1 POY       0.067300
     20 C20          4.5220     0.0000     0.6910 c3         1 POY      -0.064700
     21 C21          4.8460     1.4380     0.2770 c3         1 POY      -0.041400
     22 C22          6.0490     1.4380    -0.6680 c3         1 POY       0.011900
     23 H8           4.3130    -0.0000     3.5410 h5         1 POY       0.029100
     24 H10         -0.1320     0.5220    -2.0210 h1         1 POY       0.051700
     25 H10A        -1.6700     0.5160    -1.1480 h1         1 POY       0.051700
     26 H11         -1.5640    -1.9490    -0.9780 hc         1 POY       0.023700
     27 H11A        -0.0250    -1.9430    -1.8490 hc         1 POY       0.023700
     28 H12         -1.1360    -0.9130    -3.8040 hc         1 POY       0.029700
     29 H12A        -2.6750    -0.9170    -2.9320 hc         1 POY       0.029700
     30 H13         -2.5700    -3.3820    -2.7600 hc         1 POY       0.034200
     31 H13A        -1.0310    -3.3770    -3.6320 hc         1 POY       0.034200
     32 H15         -2.1940    -4.7310    -5.6890 hc         1 POY       0.024033
     33 H15A        -3.6150    -3.9600    -6.4080 hc         1 POY       0.024033
     34 H15B        -3.7360    -4.7330    -4.8220 hc         1 POY       0.024033
     35 H19         -1.3990    -0.9390     3.6660 h1         1 POY       0.026033
     36 H19A        -0.2040     0.1160     4.4340 h1         1 POY       0.026033
     37 H19B        -1.5710     0.8180     3.5570 h1         1 POY       0.026033
     38 H20          5.3780    -0.4310     1.1960 h1         1 POY       0.050200
     39 H20A         4.2890    -0.5860    -0.1890 h1         1 POY       0.050200
     40 H21          3.9900     1.8690    -0.2280 hc         1 POY       0.026700
     41 H21A         5.0790     2.0240     1.1580 hc         1 POY       0.026700
     42 H22          6.8950     0.9740    -0.1760 hc         1 POY       0.006367
     43 H22A         6.3000     2.4580    -0.9330 hc         1 POY       0.006367
     44 H22B         5.8040     0.8810    -1.5650 hc         1 POY       0.006367
@<TRIPOS>BOND
     1     1     2 1   
     2     1     6 1   
     3     1    10 1   
     4     2     3 1   
     5     2    17 2   
     6     3     4 2   
     7     3     7 1   
     8     4     5 1   
     9     4     9 1   
    10     5     6 1   
    11     5    19 1   
    12     6    18 2   
    13     7     8 1   
    14     7    20 1   
    15     8     9 2   
    16     8    23 1   
    17    10    11 1   
    18    10    24 1   
    19    10    25 1   
    20    11    12 1   
    21    11    26 1   
    22    11    27 1   
    23    12    13 1   
    24    12    28 1   
    25    12    29 1   
    26    13    14 1   
    27    13    30 1   
    28    13    31 1   
    29    14    15 1   
    30    14    16 2   
    31    15    32 1   
    32    15    33 1   
    33    15    34 1   
    34    19    35 1   
    35    19    36 1   
    36    19    37 1   
    37    20    21 1   
    38    20    38 1   
    39    20    39 1   
    40    21    22 1   
    41    21    40 1   
    42    21    41 1   
    43    22    42 1   
    44    22    43 1   
    45    22    44 1   
@<TRIPOS>SUBSTRUCTURE
     1 POY         1 TEMP              0 ****  ****    0 ROOT
