@<TRIPOS>MOLECULE
PP0
   60    62     1     0     0
SMALL
bcc


@<TRIPOS>ATOM
      1 CAA          0.0000     0.0000     0.0000 c3         1 PP0      -0.004100
      2 CAB          0.9800    -1.4420     4.2630 c3         1 PP0      -0.007100
      3 CAD          3.2700     0.0080     6.7640 c3         1 PP0       0.099200
      4 OAE          4.0920     0.0000     0.5810 o          1 PP0      -0.563000
      5 OAF          6.7420     1.0680     6.1380 o          1 PP0      -0.568100
      6 CAG          8.1000    -8.2940     5.2080 ca         1 PP0      -0.111000
      7 CAH          8.8680    -7.7930     6.2410 ca         1 PP0      -0.099500
      8 CAI          7.8890    -7.5350     4.0720 ca         1 PP0      -0.099500
      9 CAJ          9.4190    -6.5280     6.1420 ca         1 PP0      -0.101000
     10 CAK          8.4440    -6.2740     3.9700 ca         1 PP0      -0.101000
     11 CAL          1.5300     0.0000     0.0000 c3         1 PP0       0.225400
     12 CAM          1.4900     0.0000     4.2590 c3         1 PP0      -0.081700
     13 CAN          9.3870    -2.0860     5.9000 c3         1 PP0       0.121800
     14 CAO          7.7170    -3.2590     4.5890 c3         1 PP0       0.121800
     15 CAP          8.3100    -1.3890     6.7390 c3         1 PP0       0.089500
     16 CAQ          6.5730    -2.6090     5.3740 c3         1 PP0       0.089500
     17 OAS          2.0140     0.0000     1.3690 os         1 PP0      -0.441900
     18 CAT          3.3520    -0.0000     1.5460 c          1 PP0       0.777700
     19 CAU          6.2530     0.0110     5.7840 c          1 PP0       0.724700
     20 CAV          9.2020    -5.7670     5.0100 ca         1 PP0      -0.092300
     21 CAW          5.0510    -0.0010     3.5050 cc         1 PP0      -0.054300
     22 CAX          3.7430     0.0040     5.3330 cd         1 PP0      -0.259600
     23 CAY          5.0610     0.0050     4.9170 cc         1 PP0      -0.244600
     24 CAZ          3.7430     0.0000     3.1150 cd         1 PP0      -0.381900
     25 NBA          8.8890    -3.3980     5.4640 n3         1 PP0      -0.526600
     26 NBB          7.0620    -1.3530     5.9610 n          1 PP0      -0.321800
     27 NBC          2.9560     0.0010     4.2450 na         1 PP0       0.520900
     28 HAA         -0.3610     0.0440    -1.0200 hc         1 PP0       0.010033
     29 HAAA        -0.3610    -0.9060     0.4720 hc         1 PP0       0.010033
     30 HAAB        -0.3610     0.8620     0.5480 hc         1 PP0       0.010033
     31 HAB          0.0220    -1.4880     3.7590 hc         1 PP0       0.014367
     32 HABA         0.8660    -1.7820     5.2850 hc         1 PP0       0.014367
     33 HABB         1.6900    -2.0780     3.7480 hc         1 PP0       0.014367
     34 HAC          6.1470     0.7760     1.8520 hc         1 PP0       0.015700
     35 HACA         7.1480     0.1840     3.1850 hc         1 PP0       0.015700
     36 HACB         6.3400    -0.9640     2.1090 hc         1 PP0       0.015700
     37 HAD          4.0790     0.3240     7.4110 hc         1 PP0       0.013700
     38 HADA         2.4370     0.6930     6.8670 hc         1 PP0       0.013700
     39 HADB         2.9530    -0.9900     7.0430 hc         1 PP0       0.013700
     40 HAH          9.0360    -8.3890     7.1300 ha         1 PP0       0.100500
     41 HAI          7.2910    -7.9300     3.2600 ha         1 PP0       0.100500
     42 HAJ         10.0170    -6.1330     6.9550 ha         1 PP0       0.105500
     43 HAK          8.2770    -5.6780     3.0810 ha         1 PP0       0.105500
     44 HAL          1.8910     0.8850    -0.5110 h1         1 PP0       0.011200
     45 HALA         1.8910    -0.8840    -0.5110 h1         1 PP0       0.011200
     46 HAM          1.1210     0.5120     3.3790 h1         1 PP0       0.048200
     47 HAMA         1.1380     0.5100     5.1480 h1         1 PP0       0.048200
     48 HAN          9.6150    -1.4810     5.0320 h1         1 PP0       0.017950
     49 HANA        10.2790    -2.2200     6.4990 h1         1 PP0       0.017950
     50 HAO          7.4070    -4.2380     4.2450 h1         1 PP0       0.017950
     51 HAOA         7.9730    -2.6360     3.7410 h1         1 PP0       0.017950
     52 HAP          8.1510    -1.9410     7.6570 h1         1 PP0       0.020950
     53 HAPA         8.6260    -0.3770     6.9660 h1         1 PP0       0.020950
     54 HAQ          5.7470    -2.4000     4.7050 h1         1 PP0       0.020950
     55 HAQA         6.2490    -3.2770     6.1630 h1         1 PP0       0.020950
     56 CAC          6.2560    -0.0010     2.5990 c3         1 PP0       0.082200
     57 CAR          9.9510    -4.1700     4.8040 c3         1 PP0       0.233100
     58 HAG          7.6660    -9.2830     5.2860 ha         1 PP0       0.100000
     59 HAR         10.1280    -3.9870     3.7510 h1         1 PP0       0.014700
     60 HARA        10.8930    -4.1420     5.3390 h1         1 PP0       0.014700
@<TRIPOS>BOND
     1     1    11 1   
     2     1    28 1   
     3     1    29 1   
     4     1    30 1   
     5     2    12 1   
     6     2    31 1   
     7     2    32 1   
     8     2    33 1   
     9     3    22 1   
    10     3    37 1   
    11     3    38 1   
    12     3    39 1   
    13     4    18 2   
    14     5    19 2   
    15     6     7 ar  
    16     6     8 ar  
    17     6    58 1   
    18     7     9 ar  
    19     7    40 1   
    20     8    10 ar  
    21     8    41 1   
    22     9    20 ar  
    23     9    42 1   
    24    10    20 ar  
    25    10    43 1   
    26    11    17 1   
    27    11    44 1   
    28    11    45 1   
    29    12    27 1   
    30    12    46 1   
    31    12    47 1   
    32    13    15 1   
    33    13    25 1   
    34    13    48 1   
    35    13    49 1   
    36    14    16 1   
    37    14    25 1   
    38    14    50 1   
    39    14    51 1   
    40    15    26 1   
    41    15    52 1   
    42    15    53 1   
    43    16    26 1   
    44    16    54 1   
    45    16    55 1   
    46    17    18 1   
    47    18    24 1   
    48    19    23 1   
    49    19    26 1   
    50    20    57 1   
    51    21    23 1   
    52    21    24 2   
    53    21    56 1   
    54    22    23 2   
    55    22    27 1   
    56    24    27 1   
    57    25    57 1   
    58    34    56 1   
    59    35    56 1   
    60    36    56 1   
    61    57    59 1   
    62    57    60 1   
@<TRIPOS>SUBSTRUCTURE
     1 PP0         1 TEMP              0 ****  ****    0 ROOT
