@<TRIPOS>MOLECULE
PP1
   40    42     1     0     0
SMALL
bcc


@<TRIPOS>ATOM
      1 N1           0.0000     0.0000     0.0000 na         1 PP1       0.389200
      2 C2           3.5730     0.0030    -0.6360 ca         1 PP1       0.715900
      3 N3           2.2960     0.0040    -0.9500 nb         1 PP1      -0.709000
      4 C4           1.3620     0.0000     0.0000 ca         1 PP1       0.357800
      5 C5           1.7700     0.0000     1.3470 ca         1 PP1      -0.562500
      6 C6           3.1460    -0.0070     1.6320 ca         1 PP1       0.616200
      7 N7           4.0000    -0.0040     0.6130 nb         1 PP1      -0.761000
      8 N8          -0.4660    -0.0060     1.3180 nc         1 PP1      -0.627100
      9 C9           0.5490    -0.0090     2.1500 cd         1 PP1       0.481500
     10 N10          3.5980    -0.0140     2.9360 nv         1 PP1      -0.529500
     11 C11          0.4700    -0.0150     3.6300 ca         1 PP1      -0.104900
     12 C12          1.2860     0.8330     4.3770 ca         1 PP1      -0.089000
     13 C13          1.2090     0.8230     5.7540 ca         1 PP1      -0.102500
     14 C14          0.3240    -0.0250     6.3950 ca         1 PP1      -0.082300
     15 C15         -0.4840    -0.8710     5.6590 ca         1 PP1      -0.102500
     16 C16         -0.4200    -0.8670     4.2800 ca         1 PP1      -0.089000
     17 C24          0.2450    -0.0300     7.8990 c3         1 PP1       0.062200
     18 C28         -0.8460     0.0050    -1.1970 c3         1 PP1      -0.045300
     19 C29         -2.3180     0.0040    -0.7810 c3         1 PP1      -0.012767
     20 C33         -0.5510     1.2580    -2.0240 c3         1 PP1      -0.012767
     21 C37         -0.5520    -1.2400    -2.0350 c3         1 PP1      -0.012767
     22 HC2          4.3050     0.0060    -1.4350 h5         1 PP1      -0.006900
     23 H101         4.5650     0.1610     3.1310 hn         1 PP1       0.287300
     24 H102         2.9740    -0.2550     3.6810 hn         1 PP1       0.287300
     25 HC12         1.9790     1.4980     3.8760 ha         1 PP1       0.117500
     26 HC13         1.8410     1.4830     6.3350 ha         1 PP1       0.108500
     27 HC15        -1.1760    -1.5340     6.1650 ha         1 PP1       0.108500
     28 HC16        -1.0540    -1.5300     3.7050 ha         1 PP1       0.117500
     29 H241         0.3260    -1.0480     8.2620 hc         1 PP1       0.009367
     30 H242        -0.7040     0.3900     8.2120 hc         1 PP1       0.009367
     31 H243         1.0540     0.5640     8.3060 hc         1 PP1       0.009367
     32 H291        -2.5310    -0.8910    -0.2080 hc         1 PP1       0.019367
     33 H292        -2.9430     0.0230    -1.6650 hc         1 PP1       0.019367
     34 H293        -2.5230     0.8780    -0.1740 hc         1 PP1       0.019367
     35 H331        -0.5380     2.1250    -1.3750 hc         1 PP1       0.019367
     36 H332         0.4140     1.1530    -2.5060 hc         1 PP1       0.019367
     37 H333        -1.3190     1.3820    -2.7780 hc         1 PP1       0.019367
     38 H371        -0.5220    -2.1100    -1.3900 hc         1 PP1       0.019367
     39 H372        -1.3300    -1.3670    -2.7780 hc         1 PP1       0.019367
     40 H373         0.4040    -1.1250    -2.5300 hc         1 PP1       0.019367
@<TRIPOS>BOND
     1     1     4 1   
     2     1     8 1   
     3     1    18 1   
     4     2     3 ar  
     5     2     7 ar  
     6     2    22 1   
     7     3     4 ar  
     8     4     5 ar  
     9     5     6 ar  
    10     5     9 1   
    11     6     7 ar  
    12     6    10 1   
    13     8     9 2   
    14     9    11 1   
    15    10    23 1   
    16    10    24 1   
    17    11    12 ar  
    18    11    16 ar  
    19    12    13 ar  
    20    12    25 1   
    21    13    14 ar  
    22    13    26 1   
    23    14    15 ar  
    24    14    17 1   
    25    15    16 ar  
    26    15    27 1   
    27    16    28 1   
    28    17    29 1   
    29    17    30 1   
    30    17    31 1   
    31    18    19 1   
    32    18    20 1   
    33    18    21 1   
    34    19    32 1   
    35    19    33 1   
    36    19    34 1   
    37    20    35 1   
    38    20    36 1   
    39    20    37 1   
    40    21    38 1   
    41    21    39 1   
    42    21    40 1   
@<TRIPOS>SUBSTRUCTURE
     1 PP1         1 TEMP              0 ****  ****    0 ROOT
