@<TRIPOS>MOLECULE
PP2
   38    40     1     0     0
SMALL
bcc


@<TRIPOS>ATOM
      1 C1           0.0000     0.0000     0.0000 ca         1 PP2       0.430800
      2 N2           1.3330     0.0000     0.0000 nb         1 PP2      -0.681000
      3 C3           2.0040     0.0000     1.1310 ca         1 PP2       0.771900
      4 N4           1.4120     0.0050     2.3120 nb         1 PP2      -0.703000
      5 C5           0.0860     0.0110     2.4150 ca         1 PP2       0.630200
      6 C6          -0.6750     0.0110     1.2350 ca         1 PP2      -0.553500
      7 C8          -2.1050     0.0170     0.9260 cc         1 PP2       0.245500
      8 N9          -2.2220     0.0150    -0.3810 na         1 PP2       0.254600
      9 N10         -0.9550     0.0070    -0.9730 na         1 PP2       0.066800
     10 C11         -3.2150     0.0240     1.9070 ca         1 PP2      -0.214900
     11 C12         -4.2530     0.9460     1.7830 ca         1 PP2      -0.055500
     12 C13         -5.2850     0.9470     2.7000 ca         1 PP2      -0.086500
     13 C14         -5.2900     0.0350     3.7420 ca         1 PP2      -0.008600
     14 C15         -4.2620    -0.8830     3.8700 ca         1 PP2      -0.086500
     15 C16         -3.2280    -0.8970     2.9550 ca         1 PP2      -0.055500
     16 C22         -0.6940     0.0030    -2.4150 c3         1 PP2      -0.051300
     17 C23         -2.0230     0.0070    -3.1730 c3         1 PP2      -0.016100
     18 C24          0.0990    -1.2520    -2.7850 c3         1 PP2      -0.016100
     19 C25          0.1120     1.2470    -2.7910 c3         1 PP2      -0.016100
     20 N25         -0.5280     0.0170     3.6530 nv         1 PP2      -0.482500
     21 Cl          -6.5910     0.0430     4.8910 cl         1 PP2       0.056600
     22 H11          3.0860    -0.0050     1.0920 h5         1 PP2       0.019100
     23 H1          -3.0900     0.0180    -0.8800 hn         1 PP2       0.187700
     24 H12         -4.2510     1.6590     0.9680 ha         1 PP2       0.114000
     25 H13         -6.0920     1.6630     2.6040 ha         1 PP2       0.136000
     26 H15         -4.2710    -1.5960     4.6860 ha         1 PP2       0.136000
     27 H16         -2.4240    -1.6150     3.0560 ha         1 PP2       0.114000
     28 H31         -2.5850     0.8960    -2.9130 hc         1 PP2       0.030478
     29 H32         -2.5950    -0.8720    -2.9040 hc         1 PP2       0.030478
     30 H33         -1.8300     0.0010    -4.2390 hc         1 PP2       0.030478
     31 H41          0.0760    -1.3890    -3.8600 hc         1 PP2       0.030478
     32 H42          1.1260    -1.1400    -2.4580 hc         1 PP2       0.030478
     33 H43         -0.3420    -2.1140    -2.3010 hc         1 PP2       0.030478
     34 H51          1.1380     1.1230    -2.4680 hc         1 PP2       0.030478
     35 H52         -0.3170     2.1160    -2.3070 hc         1 PP2       0.030478
     36 H53          0.0860     1.3830    -3.8660 hc         1 PP2       0.030478
     37 H2          -0.0900    -0.4390     4.4300 hn         1 PP2       0.294300
     38 H3          -1.3700     0.5400     3.7910 hn         1 PP2       0.294300
@<TRIPOS>BOND
     1     1     2 ar  
     2     1     6 ar  
     3     1     9 1   
     4     2     3 ar  
     5     3     4 ar  
     6     3    22 1   
     7     4     5 ar  
     8     5     6 ar  
     9     5    20 1   
    10     6     7 1   
    11     7     8 2   
    12     7    10 1   
    13     8     9 1   
    14     8    23 1   
    15     9    16 1   
    16    10    11 ar  
    17    10    15 ar  
    18    11    12 ar  
    19    11    24 1   
    20    12    13 ar  
    21    12    25 1   
    22    13    14 ar  
    23    13    21 1   
    24    14    15 ar  
    25    14    26 1   
    26    15    27 1   
    27    16    17 1   
    28    16    18 1   
    29    16    19 1   
    30    17    28 1   
    31    17    29 1   
    32    17    30 1   
    33    18    31 1   
    34    18    32 1   
    35    18    33 1   
    36    19    34 1   
    37    19    35 1   
    38    19    36 1   
    39    20    37 1   
    40    20    38 1   
@<TRIPOS>SUBSTRUCTURE
     1 PP2         1 TEMP              0 ****  ****    0 ROOT
