@<TRIPOS>MOLECULE
PP3
   35    35     1     0     0
SMALL
bcc


@<TRIPOS>ATOM
      1 N1           0.0000     0.0000     0.0000 nb         1 PP3      -0.615000
      2 C2           1.3180     0.0000     0.0000 ca         1 PP3       0.241600
      3 C2A          2.0630    -0.0010    -1.3090 c3         1 PP3      -0.014400
      4 C3           2.0240     0.0000     1.1920 ca         1 PP3      -0.016200
      5 O3           3.3840     0.0000     1.1880 oh         1 PP3      -0.508100
      6 C4           1.3230     0.0010     2.3950 ca         1 PP3      -0.101300
      7 C4A          2.0520     0.0010     3.7130 c3         1 PP3       0.174100
      8 C5          -0.0600    -0.0050     2.3480 ca         1 PP3      -0.102600
      9 C6          -0.6940    -0.0010     1.1210 ca         1 PP3       0.381200
     10 C5A         -0.8650    -0.0050     3.6230 c3         1 PP3       0.253700
     11 O4P         -2.2580     0.0010     3.3060 os         1 PP3      -0.467200
     12 P           -3.0540     0.0010     4.7050 p5         1 PP3       0.663900
     13 O1P         -2.6860     1.2050     5.4810 o          1 PP3      -0.759500
     14 O2P         -4.6380     0.0060     4.4220 o          1 PP3      -0.759500
     15 O3P         -2.6640    -1.3170     5.5430 o          1 PP3      -0.759500
     16 N            2.2890     1.3840     4.1410 n7         1 PP3      -0.503200
     17 CA           2.9980     1.3150     5.4250 c3         1 PP3      -0.000500
     18 C            2.6480     2.5190     6.2600 c          1 PP3       0.987600
     19 O            1.8860     3.3520     5.8300 o          1 PP3      -0.897800
     20 CB           4.5080     1.2910     5.1740 c3         1 PP3      -0.018100
     21 OXT          3.1840     2.6670     7.4830 o          1 PP3      -0.897800
     22 H2A1         2.6120     0.9270    -1.4120 hc         1 PP3      -0.013633
     23 H2A2         1.3580    -0.0960    -2.1260 hc         1 PP3      -0.013633
     24 H2A3         2.7550    -0.8340    -1.3310 hc         1 PP3      -0.013633
     25 HO3          3.6970     0.8390     0.8920 ho         1 PP3       0.380000
     26 H4A1         1.4530    -0.5100     4.4570 h1         1 PP3       0.016200
     27 H4A2         3.0010    -0.5100     3.6000 h1         1 PP3       0.016200
     28 H6          -1.7770    -0.0030     1.0790 h4         1 PP3       0.026100
     29 H5A1        -0.6290    -0.8910     4.1990 h1         1 PP3       0.049200
     30 H5A2        -0.6230     0.8780     4.2020 h1         1 PP3       0.049200
     31 HN2          2.8650     1.8480     3.4670 hn         1 PP3       0.222800
     32 HA           2.7060     0.4140     5.9510 h1         1 PP3       0.039700
     33 HB1          4.7970     0.3140     4.8050 hc         1 PP3      -0.013300
     34 HB2          4.7640     2.0450     4.4390 hc         1 PP3      -0.013300
     35 HB3          5.0310     1.4960     6.0990 hc         1 PP3      -0.013300
@<TRIPOS>BOND
     1     1     2 ar  
     2     1     9 ar  
     3     2     3 1   
     4     2     4 ar  
     5     3    22 1   
     6     3    23 1   
     7     3    24 1   
     8     4     5 1   
     9     4     6 ar  
    10     5    25 1   
    11     6     7 1   
    12     6     8 ar  
    13     7    16 1   
    14     7    26 1   
    15     7    27 1   
    16     8     9 ar  
    17     8    10 1   
    18     9    28 1   
    19    10    11 1   
    20    10    29 1   
    21    10    30 1   
    22    11    12 1   
    23    12    13 1   
    24    12    14 1   
    25    12    15 1   
    26    16    17 1   
    27    16    31 1   
    28    17    18 1   
    29    17    20 1   
    30    17    32 1   
    31    18    19 1   
    32    18    21 1   
    33    20    33 1   
    34    20    34 1   
    35    20    35 1   
@<TRIPOS>SUBSTRUCTURE
     1 PP3         1 TEMP              0 ****  ****    0 ROOT
