@<TRIPOS>MOLECULE
PP4
   70    72     1     0     0
SMALL
bcc


@<TRIPOS>ATOM
      1 OI           0.0000     0.0000     0.0000 o          1 PP4      -0.678100
      2 C1           3.1440     4.6020    10.4360 ca         1 PP4      -0.068000
      3 C2           4.0440     5.0630    11.3480 ca         1 PP4      -0.136000
      4 C3           5.3450     5.3900    10.9710 ca         1 PP4      -0.115000
      5 C4           5.7540     5.2570     9.6790 ca         1 PP4      -0.101000
      6 C5           4.8540     4.7840     8.7100 ca         1 PP4      -0.035000
      7 C6           3.5300     4.4520     9.0940 ca         1 PP4      -0.038000
      8 C7           2.6290     3.9850     8.1230 ca         1 PP4      -0.034000
      9 C8           3.0390     3.8480     6.8320 ca         1 PP4      -0.107300
     10 C9           4.3400     4.1750     6.4550 ca         1 PP4      -0.068000
     11 C10          5.2390     4.6350     7.3670 ca         1 PP4      -0.136000
     12 C12          1.2130     0.0000     0.0000 c          1 PP4       0.606900
     13 C13          2.0710     3.3420     5.7950 c3         1 PP4       0.041900
     14 C14          2.2750     1.8380     5.5980 c3         1 PP4      -0.020500
     15 NV           1.8870     0.0000     1.1670 ns         1 PP4      -0.184900
     16 CAV          1.1550    -0.0010     2.4360 c3         1 PP4      -0.056300
     17 CV           2.0190     0.6000     3.5150 c          1 PP4       0.546100
     18 OV           3.2120     0.3810     3.5270 o          1 PP4      -0.681100
     19 CBV          0.7920    -1.4370     2.8140 c3         1 PP4      -0.053700
     20 CV1         -0.0840    -1.4280     4.0690 c3         1 PP4      -0.017600
     21 CV2          0.0250    -2.0900     1.6620 c3         1 PP4      -0.017600
     22 NL           1.4670     1.3800     4.4650 ns         1 PP4      -0.075900
     23 P            1.7640     0.9520     7.1060 p5         1 PP4       0.618600
     24 O            0.2270     0.7920     7.1140 o          1 PP4      -0.642500
     25 OH           2.4270    -0.4430     7.1350 o          1 PP4      -0.642500
     26 CA           1.7490     1.0750     9.5450 c3         1 PP4       0.181100
     27 CB           2.8390     1.0500    10.6180 c3         1 PP4       0.003900
     28 CG           4.0200     0.2590    10.1140 ca         1 PP4      -0.058300
     29 CD1          5.0360     0.8970     9.4260 ca         1 PP4      -0.080500
     30 CD2          4.0910    -1.1010    10.3460 ca         1 PP4      -0.080500
     31 CE1          6.1180     0.1720     8.9650 ca         1 PP4      -0.101500
     32 CE2          5.1720    -1.8270     9.8800 ca         1 PP4      -0.101500
     33 CZ           6.1860    -1.1890     9.1920 ca         1 PP4      -0.111000
     34 C            0.5220     1.7590    10.0930 c          1 PP4       0.685100
     35 CS          -1.2860     1.9120    11.6950 c3         1 PP4       0.275700
     36 OP           2.2220     1.7900     8.4020 os         1 PP4      -0.422200
     37 OE           0.1020     2.7600     9.5640 o          1 PP4      -0.583000
     38 H2           3.7430     5.1770    12.3830 ha         1 PP4       0.090000
     39 H3           6.0410     5.7540    11.7170 ha         1 PP4       0.087000
     40 H4           6.7690     5.5150     9.4010 ha         1 PP4       0.095000
     41 H7           1.6140     3.7270     8.4010 ha         1 PP4       0.175000
     42 H9           4.6420     4.0560     5.4210 ha         1 PP4       0.098000
     43 H10          6.2470     4.8860     7.0590 ha         1 PP4       0.095000
     44 H12          1.7540     0.0290    -0.9380 h5         1 PP4      -0.033800
     45 H131         2.2450     3.8560     4.8570 hc         1 PP4       0.010200
     46 H132         1.0560     3.5280     6.1260 hc         1 PP4       0.010200
     47 H14          3.3210     1.6390     5.3990 h1         1 PP4       0.084700
     48 HNV          2.8880     0.0160     1.1670 hn         1 PP4       0.192500
     49 HAV          0.2500     0.5850     2.3310 h1         1 PP4       0.054700
     50 HBV          1.6970    -1.9990     3.0100 hc         1 PP4       0.039700
     51 HV11        -0.6870    -2.3280     4.0940 hc         1 PP4       0.014200
     52 HV12        -0.7310    -0.5600     4.0510 hc         1 PP4       0.014200
     53 HV13         0.5470    -1.3910     4.9490 hc         1 PP4       0.014200
     54 HV21         0.6850    -2.2100     0.8120 hc         1 PP4       0.014200
     55 HV22        -0.8120    -1.4610     1.3840 hc         1 PP4       0.014200
     56 HV23        -0.3410    -3.0600     1.9760 hc         1 PP4       0.014200
     57 HNL          0.5180     1.6840     4.3720 hn         1 PP4       0.171500
     58 HA           1.4990     0.0600     9.2590 h1         1 PP4       0.077700
     59 HB1          2.4510     0.5860    11.5170 hc         1 PP4       0.019200
     60 HB2          3.1510     2.0630    10.8400 hc         1 PP4       0.019200
     61 HD1          4.9830     1.9640     9.2480 ha         1 PP4       0.106000
     62 HD2          3.2950    -1.6010    10.8860 ha         1 PP4       0.106000
     63 HE1          6.9140     0.6710     8.4250 ha         1 PP4       0.088000
     64 HE2          5.2270    -2.8940    10.0600 ha         1 PP4       0.088000
     65 HZ           7.0340    -1.7570     8.8290 ha         1 PP4       0.085000
     66 HS1         -1.0310     2.9180    12.0050 h1         1 PP4      -0.010300
     67 HS2         -2.0530     1.9530    10.9320 h1         1 PP4      -0.010300
     68 HS3         -1.6530     1.3540    12.5480 h1         1 PP4      -0.010300
     69 OS          -0.1040     1.2540    11.1680 os         1 PP4      -0.436900
     70 H1           2.1360     4.3510    10.7430 ha         1 PP4       0.113000
@<TRIPOS>BOND
     1     1    12 2   
     2     2     3 ar  
     3     2     7 ar  
     4     2    70 1   
     5     3     4 ar  
     6     3    38 1   
     7     4     5 ar  
     8     4    39 1   
     9     5     6 ar  
    10     5    40 1   
    11     6     7 ar  
    12     6    11 ar  
    13     7     8 ar  
    14     8     9 ar  
    15     8    41 1   
    16     9    10 ar  
    17     9    13 1   
    18    10    11 ar  
    19    10    42 1   
    20    11    43 1   
    21    12    15 1   
    22    12    44 1   
    23    13    14 1   
    24    13    45 1   
    25    13    46 1   
    26    14    22 1   
    27    14    23 1   
    28    14    47 1   
    29    15    16 1   
    30    15    48 1   
    31    16    17 1   
    32    16    19 1   
    33    16    49 1   
    34    17    18 2   
    35    17    22 1   
    36    19    20 1   
    37    19    21 1   
    38    19    50 1   
    39    20    51 1   
    40    20    52 1   
    41    20    53 1   
    42    21    54 1   
    43    21    55 1   
    44    21    56 1   
    45    22    57 1   
    46    23    24 1   
    47    23    25 1   
    48    23    36 1   
    49    26    27 1   
    50    26    34 1   
    51    26    36 1   
    52    26    58 1   
    53    27    28 1   
    54    27    59 1   
    55    27    60 1   
    56    28    29 ar  
    57    28    30 ar  
    58    29    31 ar  
    59    29    61 1   
    60    30    32 ar  
    61    30    62 1   
    62    31    33 ar  
    63    31    63 1   
    64    32    33 ar  
    65    32    64 1   
    66    33    65 1   
    67    34    37 2   
    68    34    69 1   
    69    35    66 1   
    70    35    67 1   
    71    35    68 1   
    72    35    69 1   
@<TRIPOS>SUBSTRUCTURE
     1 PP4         1 TEMP              0 ****  ****    0 ROOT
