@<TRIPOS>MOLECULE
PP5
   70    72     1     0     0
SMALL
bcc


@<TRIPOS>ATOM
      1 OI           0.0000     0.0000     0.0000 o          1 PP5      -0.663100
      2 C1           0.9860     0.0020    -2.4510 ca         1 PP5      -0.032300
      3 C2           0.6190    -1.1700    -3.0380 ca         1 PP5      -0.102000
      4 C3          -0.2850    -1.1890    -4.0980 ca         1 PP5      -0.099000
      5 C4          -0.8290    -0.0370    -4.5760 ca         1 PP5      -0.101000
      6 C5          -0.4740     1.1930    -3.9950 ca         1 PP5      -0.032000
      7 C6           0.4420     1.2120    -2.9130 ca         1 PP5      -0.014000
      8 C7           0.8010     2.4420    -2.3370 ca         1 PP5      -0.078000
      9 C8           0.2570     3.5940    -2.8150 ca         1 PP5      -0.101000
     10 C9          -0.6480     3.5750    -3.8740 ca         1 PP5      -0.101000
     11 C10         -1.0140     2.4040    -4.4620 ca         1 PP5      -0.101000
     12 C11          1.9660     0.0020    -1.3060 c3         1 PP5      -0.051100
     13 C12          1.2130     0.0000     0.0000 c          1 PP5       0.564100
     14 C14          2.2840     1.7130     5.6650 c3         1 PP5       0.004800
     15 NV           1.8880     0.0000     1.1660 ns         1 PP5      -0.150900
     16 CAV          1.1560    -0.0020     2.4360 c3         1 PP5      -0.057300
     17 CV           2.0200     0.5990     3.5150 c          1 PP5       0.544100
     18 OV           3.2280     0.5220     3.4370 o          1 PP5      -0.654100
     19 CBV          0.7930    -1.4390     2.8140 c3         1 PP5      -0.057700
     20 CV1         -0.0140    -1.4360     4.1140 c3         1 PP5      -0.010100
     21 CV2         -0.0450    -2.0640     1.6960 c3         1 PP5      -0.010100
     22 NL           1.4500     1.2210     4.5670 ns         1 PP5      -0.084900
     23 P            2.6730     3.4720     5.3920 p5         1 PP5       0.616600
     24 O            1.3730     4.3050     5.4600 o          1 PP5      -0.648000
     25 OH           3.3230     3.6460     4.0000 o          1 PP5      -0.648000
     26 CA           4.0530     5.3220     6.1930 c3         1 PP5       0.193100
     27 CB           3.6430     6.2580     7.3310 c3         1 PP5       0.010900
     28 CG           2.1410     6.2650     7.4600 ca         1 PP5      -0.049300
     29 CD1          1.5140     5.3560     8.2910 ca         1 PP5      -0.068000
     30 CD2          1.3910     7.1840     6.7510 ca         1 PP5      -0.068000
     31 CE1          0.1380     5.3620     8.4090 ca         1 PP5      -0.096500
     32 CE2          0.0140     7.1880     6.8660 ca         1 PP5      -0.096500
     33 CZ          -0.6130     6.2780     7.6960 ca         1 PP5      -0.106000
     34 C            5.5430     5.4080     5.9830 c          1 PP5       0.679100
     35 CS           7.5320     6.6390     5.3590 c3         1 PP5       0.275700
     36 OP           3.6950     3.9790     6.5270 os         1 PP5      -0.430200
     37 OE           6.2400     4.4440     6.1960 o          1 PP5      -0.577000
     38 H2           1.0380    -2.1020    -2.6770 ha         1 PP5       0.100000
     39 H3          -0.5600    -2.1350    -4.5470 ha         1 PP5       0.092000
     40 H4          -1.5300    -0.0670    -5.4000 ha         1 PP5       0.098000
     41 H7           1.5030     2.4730    -1.5130 ha         1 PP5       0.121000
     42 H8           0.5310     4.5410    -2.3650 ha         1 PP5       0.105000
     43 H9          -1.0670     4.5070    -4.2350 ha         1 PP5       0.094000
     44 H10         -1.7190     2.4050    -5.2840 ha         1 PP5       0.098000
     45 H111         2.5890    -0.8820    -1.3640 hc         1 PP5       0.034700
     46 H112         2.5880     0.8870    -1.3630 hc         1 PP5       0.034700
     47 H141         1.7510     1.6030     6.6010 h1         1 PP5       0.033700
     48 H142         3.2040     1.1420     5.7040 h1         1 PP5       0.033700
     49 HNV          2.8880     0.0080     1.1660 hn         1 PP5       0.197500
     50 HAV          0.2500     0.5840     2.3310 h1         1 PP5       0.063700
     51 HBV          1.6990    -2.0160     2.9520 hc         1 PP5       0.029700
     52 HV11         0.6570    -1.3050     4.9540 hc         1 PP5       0.008367
     53 HV12        -0.5390    -2.3780     4.2150 hc         1 PP5       0.008367
     54 HV13        -0.7300    -0.6240     4.0930 hc         1 PP5       0.008367
     55 HV21         0.5800    -2.2340     0.8280 hc         1 PP5       0.008367
     56 HV22        -0.8550    -1.3940     1.4330 hc         1 PP5       0.008367
     57 HV23        -0.4540    -3.0080     2.0360 hc         1 PP5       0.008367
     58 HNL          0.4630     1.3850     4.5760 hn         1 PP5       0.162500
     59 HA           3.5430     5.6150     5.2830 h1         1 PP5       0.075700
     60 HB1          4.0830     5.9120     8.2590 hc         1 PP5       0.010700
     61 HB2          3.9910     7.2610     7.1180 hc         1 PP5       0.010700
     62 HD1          2.1030     4.6380     8.8490 ha         1 PP5       0.093500
     63 HD2          1.8830     7.8980     6.1000 ha         1 PP5       0.093500
     64 HE1         -0.3530     4.6490     9.0600 ha         1 PP5       0.081000
     65 HE2         -0.5740     7.9080     6.3080 ha         1 PP5       0.081000
     66 HZ          -1.6930     6.2820     7.7870 ha         1 PP5       0.080000
     67 HS1          7.7900     7.6300     5.0080 h1         1 PP5      -0.011967
     68 HS2          8.0400     6.4430     6.2950 h1         1 PP5      -0.011967
     69 HS3          7.8360     5.9050     4.6220 h1         1 PP5      -0.011967
     70 OS           6.0950     6.5560     5.5610 os         1 PP5      -0.439900
@<TRIPOS>BOND
     1     1    13 2   
     2     2     3 ar  
     3     2     7 ar  
     4     2    12 1   
     5     3     4 ar  
     6     3    38 1   
     7     4     5 ar  
     8     4    39 1   
     9     5     6 ar  
    10     5    40 1   
    11     6     7 ar  
    12     6    11 ar  
    13     7     8 ar  
    14     8     9 ar  
    15     8    41 1   
    16     9    10 ar  
    17     9    42 1   
    18    10    11 ar  
    19    10    43 1   
    20    11    44 1   
    21    12    13 1   
    22    12    45 1   
    23    12    46 1   
    24    13    15 1   
    25    14    22 1   
    26    14    23 1   
    27    14    47 1   
    28    14    48 1   
    29    15    16 1   
    30    15    49 1   
    31    16    17 1   
    32    16    19 1   
    33    16    50 1   
    34    17    18 2   
    35    17    22 1   
    36    19    20 1   
    37    19    21 1   
    38    19    51 1   
    39    20    52 1   
    40    20    53 1   
    41    20    54 1   
    42    21    55 1   
    43    21    56 1   
    44    21    57 1   
    45    22    58 1   
    46    23    24 1   
    47    23    25 1   
    48    23    36 1   
    49    26    27 1   
    50    26    34 1   
    51    26    36 1   
    52    26    59 1   
    53    27    28 1   
    54    27    60 1   
    55    27    61 1   
    56    28    29 ar  
    57    28    30 ar  
    58    29    31 ar  
    59    29    62 1   
    60    30    32 ar  
    61    30    63 1   
    62    31    33 ar  
    63    31    64 1   
    64    32    33 ar  
    65    32    65 1   
    66    33    66 1   
    67    34    37 2   
    68    34    70 1   
    69    35    67 1   
    70    35    68 1   
    71    35    69 1   
    72    35    70 1   
@<TRIPOS>SUBSTRUCTURE
     1 PP5         1 TEMP              0 ****  ****    0 ROOT
