@<TRIPOS>MOLECULE
PP6
   73    76     1     0     0
SMALL
bcc


@<TRIPOS>ATOM
      1 OI         -0.5230    0.0660   -0.0170 o         1 PP6     -0.394100
      2 C1          2.3160   -0.7290   -0.1030 ca        1 PP6     -0.120300
      3 C2          2.5410   -1.8930   -0.8070 ca        1 PP6     -0.071000
      4 C3          3.1060   -3.0240   -0.1720 ca        1 PP6     -0.130000
      5 C4          3.4250   -2.9870    1.1640 ca        1 PP6     -0.076000
      6 C5          3.1890   -1.8100    1.9270 ca        1 PP6     -0.035000
      7 C6          2.6460   -0.6670    1.2860 ca        1 PP6     -0.016000
      8 C7          2.4120    0.4930    2.0630 ca        1 PP6     -0.147000
      9 C8          2.6230    0.5120    3.4250 ca        1 PP6     -0.071300
     10 C9          3.1780   -0.6310    4.0580 ca        1 PP6     -0.119000
     11 C10         3.4670   -1.7540    3.3200 ca        1 PP6     -0.093000
     12 C11         1.7770    0.4710   -0.8010 c3        1 PP6     -0.088100
     13 C12         0.3740    0.8190   -0.3520 c         1 PP6      0.542100
     14 C13         2.2440    1.7170    4.2200 c3        1 PP6     -0.037100
     15 C14         0.7610    2.1270    4.0960 c3        1 PP6     -0.147700
     16 NV          0.0770    2.3090   -0.3730 n4        1 PP6     -0.706800
     17 CAV        -1.2810    2.7780    0.0430 c3        1 PP6      0.058500
     18 CV         -1.5380    2.5930    1.5480 c         1 PP6      0.712100
     19 OV         -2.4070    1.8910    2.0410 o         1 PP6     -0.410000
     20 CBV        -2.4410    2.1730   -0.7740 c3        1 PP6     -0.077700
     21 CV1        -3.6830    3.0180   -0.5540 c3        1 PP6     -0.110600
     22 CV2        -2.1190    2.1080   -2.2520 c3        1 PP6     -0.110600
     23 NL         -0.1370    1.0730    3.6500 n3        1 PP6     -0.929800
     24 P           0.6130    3.3770    3.0170 p5        1 PP6      1.669300
     25 O           1.4410    3.4340    1.8050 o         1 PP6     -0.889300
     26 OH         -0.8760    3.4490    2.3610 os        1 PP6     -0.628500
     27 CA          1.3990    5.8360    3.4370 c3        1 PP6      0.159100
     28 CB          0.5050    7.0710    3.5470 c3        1 PP6     -0.046100
     29 CG         -0.2960    7.2980    2.3140 ca        1 PP6     -0.104300
     30 CD1        -1.6930    7.2130    2.3510 ca        1 PP6     -0.123000
     31 CD2         0.3390    7.6530    1.1170 ca        1 PP6     -0.123000
     32 CE1        -2.4430    7.4790    1.2050 ca        1 PP6     -0.132500
     33 CE2        -0.4120    7.9150   -0.0270 ca        1 PP6     -0.132500
     34 CZ         -1.8050    7.8300    0.0160 ca        1 PP6     -0.129000
     35 C           2.6460    5.9420    4.3070 c         1 PP6      0.612100
     36 CS          4.3710    7.3490    5.1420 c3        1 PP6      0.123700
     37 OP          0.6650    4.7070    3.8870 os        1 PP6     -0.580200
     38 H2          2.2890   -1.9640   -1.8780 ha        1 PP6      0.140000
     39 H3          3.2820   -3.9340   -0.7670 ha        1 PP6      0.155000
     40 H4          3.8610   -3.8660    1.6650 ha        1 PP6      0.153000
     41 H7          2.0430    1.4080    1.5730 ha        1 PP6      0.128000
     42 H9          3.3800   -0.6050    5.1400 ha        1 PP6      0.150000
     43 H10         3.9110   -2.6400    3.8030 ha        1 PP6      0.152000
     44 H111        2.4810    1.3350   -0.6360 hc        1 PP6      0.102700
     45 H112        1.7140    0.2810   -1.9110 hc        1 PP6      0.102700
     46 H131        2.8780    2.5950    3.9070 hc        1 PP6      0.085200
     47 H132        2.4750    1.5240    5.3050 hc        1 PP6      0.085200
     48 H14         0.4760    2.4740    5.1400 h1        1 PP6      0.122700
     49 HNV         0.7840    2.7830    0.2500 hn        1 PP6      0.486800
     50 HAV        -1.2770    3.9040   -0.1310 hx        1 PP6      0.126700
     51 HBV        -2.6390    1.1310   -0.3870 hc        1 PP6      0.108700
     52 HV11       -3.5420    4.0500   -0.9570 hc        1 PP6      0.055533
     53 HV12       -4.5490    2.5470   -1.0800 hc        1 PP6      0.055533
     54 HV13       -3.9280    3.0820    0.5350 hc        1 PP6      0.055533
     55 HV21       -1.7420    3.0890   -2.6310 hc        1 PP6      0.055533
     56 HV22       -1.3670    1.3110   -2.4710 hc        1 PP6      0.055533
     57 HV23       -3.0490    1.8550   -2.8220 hc        1 PP6      0.055533
     58 HNL        -0.9740    1.0550    4.2060 hn        1 PP6      0.389300
     59 HA          1.7390    5.6650    2.3720 h1        1 PP6      0.099700
     60 HB1        -0.1660    6.9490    4.4390 hc        1 PP6      0.092700
     61 HB2         1.1560    7.9710    3.7280 hc        1 PP6      0.092700
     62 HD1        -2.2020    6.9470    3.2900 ha        1 PP6      0.139000
     63 HD2         1.4350    7.7450    1.0860 ha        1 PP6      0.139000
     64 HE1        -3.5410    7.4260    1.2470 ha        1 PP6      0.140000
     65 HE2         0.0920    8.2110   -0.9590 ha        1 PP6      0.140000
     66 HZ         -2.3980    8.0570   -0.8820 ha        1 PP6      0.140000
     67 HS1         4.1670    7.0670    6.2030 h1        1 PP6      0.063700
     68 HS2         5.1850    6.7130    4.7200 h1        1 PP6      0.063700
     69 HS3         4.6000    8.4390    5.0400 h1        1 PP6      0.063700
     70 OS          3.1790    7.1900    4.3610 os        1 PP6     -0.422900
     71 HV2         0.2290    2.6320   -1.3340 hn        1 PP6      0.486800
     72 HL2         0.2900    0.1640    3.6980 hn        1 PP6      0.389300
     73 OE          3.2110    5.0170    4.8950 o         1 PP6     -0.546000
@<TRIPOS>BOND
     1    1   13 2
     2    2    3 ar
     3    2    7 ar
     4    2   12 1
     5    3    4 ar
     6    3   38 1
     7    4    5 ar
     8    4   39 1
     9    5    6 ar
    10    5   40 1
    11    6    7 ar
    12    6   11 ar
    13    7    8 ar
    14    8    9 ar
    15    8   41 1
    16    9   10 ar
    17    9   14 1
    18   10   11 ar
    19   10   42 1
    20   11   43 1
    21   12   13 1
    22   12   44 1
    23   12   45 1
    24   13   16 1
    25   14   15 1
    26   14   46 1
    27   14   47 1
    28   15   23 1
    29   15   24 1
    30   15   48 1
    31   16   17 1
    32   16   49 1
    33   16   71 1
    34   17   18 1
    35   17   20 1
    36   17   50 1
    37   18   19 2
    38   18   26 1
    39   20   21 1
    40   20   22 1
    41   20   51 1
    42   21   52 1
    43   21   53 1
    44   21   54 1
    45   22   55 1
    46   22   56 1
    47   22   57 1
    48   23   58 1
    49   23   72 1
    50   24   25 2
    51   24   26 1
    52   24   37 1
    53   27   28 1
    54   27   35 1
    55   27   37 1
    56   27   59 1
    57   28   29 1
    58   28   60 1
    59   28   61 1
    60   29   30 ar
    61   29   31 ar
    62   30   32 ar
    63   30   62 1
    64   31   33 ar
    65   31   63 1
    66   32   34 ar
    67   32   64 1
    68   33   34 ar
    69   33   65 1
    70   34   66 1
    71   35   70 1
    72   35   73 2
    73   36   67 1
    74   36   68 1
    75   36   69 1
    76   36   70 1
@<TRIPOS>SUBSTRUCTURE
     1 PP6         1 TEMP              0 ****  ****    0 ROOT
