@<TRIPOS>MOLECULE
PP9
   74    78     1     0     0
SMALL
bcc


@<TRIPOS>ATOM
      1 CHA         0.4400   -0.1240   -0.0420 ce        1 PP9     -0.203200
      2 CHB         5.0830    0.4230   -1.4290 ce        1 PP9     -0.210200
      3 CHC         3.4100    1.1460   -5.7970 ce        1 PP9     -0.091600
      4 CHD        -1.1360   -0.2470   -4.6870 ce        1 PP9     -0.201600
      5 NA          2.6930   -0.0290   -1.0590 na        1 PP9     -0.276100
      6 C1A         1.7900    0.0470    0.0190 cc        1 PP9      0.077900
      7 C2A         2.6120    0.3330    1.2450 cd        1 PP9     -0.047300
      8 C3A         3.9120    0.5220    0.8520 cd        1 PP9     -0.091300
      9 C4A         3.9940    0.3270   -0.6220 cc        1 PP9      0.050900
     10 CMA         5.0830    0.8540    1.6640 c3        1 PP9     -0.069800
     11 CAA         2.0680    0.4090    2.6110 c3        1 PP9     -0.036100
     12 CBA         2.4510   -0.7760    3.4800 c3        1 PP9     -0.189400
     13 CGA         3.5310   -0.4590    4.5280 c         1 PP9      0.904600
     14 O1A         3.9980   -1.4310    5.1880 o         1 PP9     -0.852300
     15 O2A         3.9090    0.7390    4.6990 o         1 PP9     -0.852300
     16 NB          4.8950    1.0350   -3.8370 nd        1 PP9     -0.560300
     17 C1B         4.9100    0.1490   -2.8470 cd        1 PP9      0.164600
     18 C2B         4.4180   -1.2020   -3.2890 cd        1 PP9     -0.105200
     19 C3B         3.9230   -1.0240   -4.5590 cc        1 PP9     -0.189600
     20 C4B         4.1190    0.4250   -4.8840 cc        1 PP9      0.363900
     21 CMB         4.5110   -2.4040   -2.4650 c3        1 PP9     -0.044900
     22 CAB         3.3990   -1.9650   -5.5090 ce        1 PP9     -0.099000
     23 CBB         3.1430   -3.2550   -5.2700 c2        1 PP9     -0.219000
     24 NC          1.2650    0.1690   -5.1490 na        1 PP9     -0.488800
     25 C1C         2.0630    0.7690   -6.1360 cd        1 PP9     -0.023000
     26 C2C         1.2210    1.0880   -7.2310 cd        1 PP9     -0.083200
     27 C3C        -0.1120    0.6980   -6.8770 cc        1 PP9     -0.145000
     28 C4C        -0.0550    0.1660   -5.5450 cc        1 PP9      0.116000
     29 CMC         1.6700    1.7210   -8.4720 c3        1 PP9     -0.024900
     30 CAC        -1.3220    0.8180   -7.6360 ce        1 PP9     -0.058000
     31 CBC        -1.4120    0.9930   -8.9580 c2        1 PP9     -0.268000
     32 ND          0.0560   -0.1570   -2.4910 nd        1 PP9     -0.688300
     33 C1D        -1.0780   -0.3760   -3.3390 cc        1 PP9      0.460900
     34 C2D        -2.2490   -0.7280   -2.4730 cc        1 PP9     -0.197800
     35 C3D        -1.8200   -0.6720   -1.1720 cd        1 PP9     -0.089200
     36 C4D        -0.3540   -0.3060   -1.2280 cd        1 PP9      0.234600
     37 CMD        -3.5780   -1.0560   -2.9880 c3        1 PP9     -0.071900
     38 CAD        -2.6150   -0.9420    0.0360 c3        1 PP9     -0.031200
     39 CBD        -3.7020    0.0900    0.2800 c3        1 PP9     -0.191400
     40 CGD        -5.1190   -0.5080    0.3110 c         1 PP9      0.905600
     41 O1D        -5.3530   -1.5890   -0.3120 o         1 PP9     -0.853300
     42 O2D        -6.0080    0.1320    0.9420 o         1 PP9     -0.853300
     43 HHA        -0.1260   -0.1150    0.9060 ha        1 PP9      0.167000
     44 HHB         6.0610    0.7250   -1.0410 ha        1 PP9      0.158000
     45 HHC         3.7440    2.1380   -6.1420 ha        1 PP9      0.145000
     46 HHD        -2.0990   -0.4340   -5.1910 ha        1 PP9      0.145000
     47 HNA         2.4160    0.0740   -2.0030 hn        1 PP9      0.302700
     48 HMA1        4.8060    0.9060    2.7570 hc        1 PP9      0.066033
     49 HMA2        5.5070    1.8400    1.3470 hc        1 PP9      0.066033
     50 HMA3        5.8780    0.0760    1.5370 hc        1 PP9      0.066033
     51 HAA1        0.9500    0.5010    2.5670 hc        1 PP9      0.064200
     52 HAA2        2.4660    1.3440    3.1080 hc        1 PP9      0.064200
     53 HBA1        1.5460   -1.1300    4.0370 hc        1 PP9      0.035700
     54 HBA2        2.8140   -1.6300    2.8550 hc        1 PP9      0.035700
     55 HMB1        5.0360   -2.1830   -1.5010 hc        1 PP9      0.053700
     56 HMB2        5.0720   -3.2090   -3.0050 hc        1 PP9      0.053700
     57 HMB3        3.4870   -2.7920   -2.2200 hc        1 PP9      0.053700
     58 HAB         3.2030   -1.5400   -6.5120 ha        1 PP9      0.129000
     59 HBB1        3.2950   -3.7290   -4.2930 ha        1 PP9      0.111500
     60 HBB2        2.7420   -3.9130   -6.0510 ha        1 PP9      0.111500
     61 HNC         1.6070   -0.1290   -4.2640 hn        1 PP9      0.488800
     62 HMC1        2.6750    2.1930   -8.3330 hc        1 PP9      0.035700
     63 HMC2        0.9450    2.5120   -8.7940 hc        1 PP9      0.035700
     64 HMC3        1.7500    0.9650   -9.2940 hc        1 PP9      0.035700
     65 HAC        -2.2480    0.7480   -7.0330 ha        1 PP9      0.121000
     66 HBC1       -0.5390    1.0520   -9.6180 ha        1 PP9      0.102000
     67 HBC2       -2.3820    1.0810   -9.4600 ha        1 PP9      0.102000
     68 HMD1       -4.2850   -1.2800   -2.1360 hc        1 PP9      0.062700
     69 HMD2       -3.9900   -0.1990   -3.5780 hc        1 PP9      0.062700
     70 HMD3       -3.5260   -1.9490   -3.6600 hc        1 PP9      0.062700
     71 HAD1       -3.1130   -1.9500   -0.0890 hc        1 PP9      0.061700
     72 HAD2       -1.9460   -1.0110    0.9340 hc        1 PP9      0.061700
     73 HBD1       -3.6970    0.8670   -0.5260 hc        1 PP9      0.032700
     74 HBD2       -3.5180    0.6120    1.2520 hc        1 PP9      0.032700
@<TRIPOS>BOND
     1    1    6 1   
     2    1   36 2   
     3    1   43 1   
     4    2    9 1   
     5    2   17 2   
     6    2   44 1   
     7    3   20 1   
     8    3   25 2   
     9    3   45 1   
    10    4   28 2   
    11    4   33 1   
    12    4   46 1   
    13    5    6 1   
    14    5    9 1   
    15    5   47 1   
    16    6    7 2   
    17    7    8 1   
    18    7   11 1   
    19    8    9 2   
    20    8   10 1   
    21   10   48 1   
    22   10   49 1   
    23   10   50 1   
    24   11   12 1   
    25   11   51 1   
    26   11   52 1   
    27   12   13 1   
    28   12   53 1   
    29   12   54 1   
    30   13   14 1   
    31   13   15 1   
    32   16   17 1   
    33   16   20 2   
    34   17   18 1   
    35   18   19 2   
    36   18   21 1   
    37   19   20 1   
    38   19   22 1   
    39   21   55 1   
    40   21   56 1   
    41   21   57 1   
    42   22   23 2   
    43   22   58 1   
    44   23   59 1   
    45   23   60 1   
    46   24   25 1   
    47   24   28 1   
    48   24   61 1   
    49   25   26 1   
    50   26   27 2   
    51   26   29 1   
    52   27   28 1   
    53   27   30 1   
    54   29   62 1   
    55   29   63 1   
    56   29   64 1   
    57   30   31 2   
    58   30   65 1   
    59   31   66 1   
    60   31   67 1   
    61   32   33 2   
    62   32   36 1   
    63   33   34 1   
    64   34   35 2   
    65   34   37 1   
    66   35   36 1   
    67   35   38 1   
    68   37   68 1   
    69   37   69 1   
    70   37   70 1   
    71   38   39 1   
    72   38   71 1   
    73   38   72 1   
    74   39   40 1   
    75   39   73 1   
    76   39   74 1   
    77   40   41 1   
    78   40   42 1   
@<TRIPOS>SUBSTRUCTURE
     1 PP9         1 TEMP              0 ****  ****    0 ROOT
