@<TRIPOS>MOLECULE
molecule
   74    78     1     0     0
SMALL
bcc


@<TRIPOS>ATOM
      1 CHA          0.0000     0.0000     0.0000 ce         1 PP9      -0.145200
      2 CHB          4.4850     0.0560    -1.6100 ce         1 PP9      -0.154200
      3 CHC          2.8090    -0.5320    -6.0150 ce         1 PP9      -0.353600
      4 CHD         -1.6510    -0.1680    -4.4720 ce         1 PP9      -0.396600
      5 NA           2.1030     0.0110    -1.1650 na         1 PP9      -0.275100
      6 C1A          1.3850     0.0000     0.0000 cc         1 PP9       0.042900
      7 C2A          2.2820     0.0000     1.1760 cd         1 PP9      -0.034300
      8 C3A          3.5320     0.0540     0.6840 cd         1 PP9      -0.036300
      9 C4A          3.4170     0.0520    -0.7560 cc         1 PP9      -0.114100
     10 CMA          4.8180     0.1150     1.5040 c3         1 PP9      -0.019800
     11 CAA          1.9660    -0.0520     2.6740 c3         1 PP9      -0.009100
     12 CBA          2.5250    -1.2240     3.4680 c3         1 PP9      -0.199400
     13 CGA          2.2420    -1.2800     4.9590 c          1 PP9       0.931600
     14 O1A          1.8080    -2.3360     5.4190 o          1 PP9      -0.839800
     15 O2A          2.4810    -0.2980     5.6620 o          1 PP9      -0.839800
     16 NB           3.2130    -0.0430    -3.6740 nd         1 PP9      -0.366000
     17 C1B          4.3870     0.0110    -2.9700 cd         1 PP9      -0.103000
     18 C2B          5.5030    -0.1230    -3.8520 cd         1 PP9      -0.057200
     19 C3B          5.0360    -0.1970    -5.0900 cc         1 PP9      -0.081000
     20 C4B          3.6200    -0.1790    -4.9800 cc         1 PP9       0.053600
     21 CMB          6.9390    -0.3600    -3.4890 c3         1 PP9      -0.026900
     22 CAB          5.7730    -0.3950    -6.2270 ce         1 PP9      -0.092000
     23 CBB          5.9680    -1.7460    -6.6530 c2         1 PP9      -0.219000
     24 NC           0.7340    -0.4030    -4.7810 na         1 PP9      -0.532800
     25 C1C          1.4710    -0.7120    -5.8900 cd         1 PP9      -0.040000
     26 C2C          0.6560    -0.9010    -7.0200 cd         1 PP9      -0.035200
     27 C3C         -0.5720    -0.4750    -6.6960 cc         1 PP9      -0.055000
     28 C4C         -0.5500    -0.3260    -5.2610 cc         1 PP9       0.060000
     29 CMC          1.1110    -1.5700    -8.2920 c3         1 PP9      -0.018900
     30 CAC         -1.4180     0.1520    -7.5750 ce         1 PP9      -0.091000
     31 CBC         -0.9090     1.3330    -8.2580 c2         1 PP9      -0.221000
     32 ND          -0.4550    -0.0390    -2.3660 nd         1 PP9      -0.433000
     33 C1D         -1.6150    -0.0440    -3.1120 cc         1 PP9       0.146600
     34 C2D         -2.7880     0.0190    -2.2760 cc         1 PP9      -0.135200
     35 C3D         -2.3520     0.0310    -1.0090 cd         1 PP9      -0.019200
     36 C4D         -0.8820    -0.0090    -1.0690 cd         1 PP9       0.030000
     37 CMD         -4.2480     0.0610    -2.7190 c3         1 PP9      -0.013900
     38 CAD         -3.2900    -0.0250     0.1880 c3         1 PP9      -0.020200
     39 CBD         -4.1650     1.1720     0.5230 c3         1 PP9      -0.193400
     40 CGD         -5.1400     0.8500     1.6420 c          1 PP9       0.919600
     41 O1D         -6.3370     0.7220     1.3770 o          1 PP9      -0.841300
     42 O2D         -4.6930     0.7170     2.7830 o          1 PP9      -0.841300
     43 HHA          0.4620    -0.0090    -0.9800 ha         1 PP9       0.210000
     44 HHB          3.4930     0.0140    -2.0430 ha         1 PP9       0.318000
     45 HHC          2.3620    -0.3870    -5.0400 ha         1 PP9       0.334000
     46 HHD         -0.6820    -0.1970    -3.9880 ha         1 PP9       0.297000
     47 HNA          1.7580     0.2790    -2.0660 hn         1 PP9       0.353700
     48 HMA1         5.2060    -0.8870     1.6430 hc         1 PP9       0.057367
     49 HMA2         5.5520     0.7170     0.9820 hc         1 PP9       0.057367
     50 HMA3         4.6090     0.5590     2.4700 hc         1 PP9       0.057367
     51 HAA1         2.3400     0.8610     3.1230 hc         1 PP9       0.070700
     52 HAA2         0.8880    -0.0610     2.7850 hc         1 PP9       0.070700
     53 HBA1         2.1380    -2.1340     3.0260 hc         1 PP9       0.018200
     54 HBA2         3.6010    -1.2240     3.3380 hc         1 PP9       0.018200
     55 HMB1         7.5690    -0.1200    -4.3360 hc         1 PP9       0.043367
     56 HMB2         7.0760    -1.4000    -3.2200 hc         1 PP9       0.043367
     57 HMB3         7.2070     0.2690    -2.6490 hc         1 PP9       0.043367
     58 HAB          6.1930     0.4340    -6.7830 ha         1 PP9       0.127000
     59 HBB1         6.5440    -1.9550    -7.5470 ha         1 PP9       0.109500
     60 HBB2         5.5390    -2.5620    -6.0830 ha         1 PP9       0.109500
     61 HNC          0.9980    -0.5800    -3.8320 hn         1 PP9       0.501800
     62 HMC1         1.6590    -2.4730    -8.0490 hc         1 PP9       0.046700
     63 HMC2         1.7540    -0.8960    -8.8450 hc         1 PP9       0.046700
     64 HMC3         0.2480    -1.8230    -8.8960 hc         1 PP9       0.046700
     65 HAC         -2.4230    -0.2110    -7.7560 ha         1 PP9       0.139000
     66 HBC1        -1.5380     1.8650    -8.9620 ha         1 PP9       0.115500
     67 HBC2         0.0990     1.6800    -8.0630 ha         1 PP9       0.115500
     68 HMD1        -4.6110     1.0800    -2.6720 hc         1 PP9       0.048700
     69 HMD2        -4.8420    -0.5650    -2.0640 hc         1 PP9       0.048700
     70 HMD3        -4.3270    -0.3040    -3.7360 hc         1 PP9       0.048700
     71 HAD1        -3.9490    -0.8720     0.0390 hc         1 PP9       0.065700
     72 HAD2        -2.6830    -0.2330     1.0610 hc         1 PP9       0.065700
     73 HBD1        -3.5330     1.9970     0.8300 hc         1 PP9       0.021700
     74 HBD2        -4.7220     1.4620    -0.3600 hc         1 PP9       0.021700
@<TRIPOS>BOND
     1     1     6 1
     2     1    36 2
     3     1    43 1
     4     2     9 1
     5     2    17 2
     6     2    44 1
     7     3    20 1
     8     3    25 2
     9     3    45 1
    10     4    28 2
    11     4    33 1
    12     4    46 1
    13     5     6 1
    14     5     9 1
    15     5    47 1
    16     6     7 2
    17     7     8 1
    18     7    11 1
    19     8     9 2
    20     8    10 1
    21    10    48 1
    22    10    49 1
    23    10    50 1
    24    11    12 1
    25    11    51 1
    26    11    52 1
    27    12    13 1
    28    12    53 1
    29    12    54 1
    30    13    14 1
    31    13    15 1
    32    16    17 1
    33    16    20 2
    34    17    18 1
    35    18    19 2
    36    18    21 1
    37    19    20 1
    38    19    22 1
    39    21    55 1
    40    21    56 1
    41    21    57 1
    42    22    23 2
    43    22    58 1
    44    23    59 1
    45    23    60 1
    46    24    25 1
    47    24    28 1
    48    24    61 1
    49    25    26 1
    50    26    27 2
    51    26    29 1
    52    27    28 1
    53    27    30 1
    54    29    62 1
    55    29    63 1
    56    29    64 1
    57    30    31 2
    58    30    65 1
    59    31    66 1
    60    31    67 1
    61    32    33 2
    62    32    36 1
    63    33    34 1
    64    34    35 2
    65    34    37 1
    66    35    36 1
    67    35    38 1
    68    37    68 1
    69    37    69 1
    70    37    70 1
    71    38    39 1
    72    38    71 1
    73    38    72 1
    74    39    40 1
    75    39    73 1
    76    39    74 1
    77    40    41 1
    78    40    42 1
@<TRIPOS>SUBSTRUCTURE
     1 PP9         1 TEMP              0 ****  ****    0 ROOT
