@<TRIPOS>MOLECULE
molecule
   32    32     1     0     0
SMALL
bcc


@<TRIPOS>ATOM
      1 C1           0.0000     0.0000     0.0000 c3         1 PPC       0.347900
      2 C2           1.5450     0.0000     0.0000 c3         1 PPC       0.084100
      3 C3           1.9200     0.0000     1.4980 c3         1 PPC       0.084100
      4 C4           0.5590     0.0010     2.2290 c3         1 PPC       0.133100
      5 C5           0.6230     0.8680     3.4890 c3         1 PPC       0.168400
      6 O1          -0.4970    -1.3340    -0.1170 os         1 PPC      -0.537200
      7 O2           2.0490    -1.1710    -0.6430 oh         1 PPC      -0.549800
      8 O3           2.6640    -1.1750     1.8270 oh         1 PPC      -0.578800
      9 P           -0.5240     1.8310     5.4160 p5         1 PPC       1.200900
     10 O1P         -1.9470     1.9230     6.1630 o          1 PPC      -0.940500
     11 O2P          0.5650     1.1880     6.4110 o          1 PPC      -0.940500
     12 O3P         -0.0870     3.1890     5.0190 o          1 PPC      -0.940500
     13 PA          -1.9100    -1.2400    -0.8820 p5         1 PPC       1.107600
     14 O1A         -2.9220    -0.3260    -0.0270 o          1 PPC      -0.808500
     15 O2A         -1.7080    -0.6360    -2.2180 o          1 PPC      -0.808500
     16 PB          -4.2110    -2.8040    -1.9380 p5         1 PPC       1.116700
     17 O1B         -4.8320    -4.2800    -2.1050 o          1 PPC      -0.947500
     18 O2B         -4.0100    -2.2000    -3.2730 o          1 PPC      -0.947500
     19 O3B         -5.2250    -1.8900    -1.0820 o          1 PPC      -0.947500
     20 C3A         -2.6110    -2.9110    -1.0720 c3         1 PPC      -0.398800
     21 O5          -0.6650     0.9080     4.1050 os         1 PPC      -0.501200
     22 O4          -0.3690     0.5660     1.2750 os         1 PPC      -0.340600
     23 H1          -0.3740     0.6190    -0.8060 h2         1 PPC       0.102700
     24 H2           1.9210     0.8950    -0.4810 h1         1 PPC      -0.005300
     25 H3           2.4810     0.8930     1.7460 h1         1 PPC       0.008700
     26 H4           0.2680    -1.0130     2.4780 h1         1 PPC       0.081700
     27 H51          0.9270     1.8720     3.2210 h1         1 PPC       0.018200
     28 H52          1.3420     0.4450     4.1810 h1         1 PPC       0.018200
     29 HO2          2.6210    -0.9200    -1.3490 ho         1 PPC       0.340000
     30 HO3          3.5330    -0.9300     2.1000 ho         1 PPC       0.346000
     31 H3A1        -1.9290    -3.5250    -1.6480 hc         1 PPC       0.016200
     32 H3A2        -2.7580    -3.3540    -0.0940 hc         1 PPC       0.016200
@<TRIPOS>BOND
     1     1     2 1
     2     1     6 1
     3     1    22 1
     4     1    23 1
     5     2     3 1
     6     2     7 1
     7     2    24 1
     8     3     4 1
     9     3     8 1
    10     3    25 1
    11     4     5 1
    12     4    22 1
    13     4    26 1
    14     5    21 1
    15     5    27 1
    16     5    28 1
    17     6    13 1
    18     7    29 1
    19     8    30 1
    20     9    10 1
    21     9    11 1
    22     9    12 1
    23     9    21 1
    24    13    14 1
    25    13    15 1
    26    13    20 1
    27    16    17 1
    28    16    18 1
    29    16    19 1
    30    16    20 1
    31    20    31 1
    32    20    32 1
@<TRIPOS>SUBSTRUCTURE
     1 PPC         1 TEMP              0 ****  ****    0 ROOT
