@<TRIPOS>MOLECULE
PPC
   32    31     1     0     0
SMALL
bcc


@<TRIPOS>ATOM
      1 C1         -0.5340    0.1290    0.4830 c3        1 PPC      0.185000
      2 C2          1.0290    0.1850    0.5530 c3        1 PPC     -0.044000
      3 C3          1.3380   -0.3880    1.9570 c3        1 PPC      0.001000
      4 C4          0.0930   -0.0110    2.7860 c3        1 PPC     -0.011000
      5 C5          0.3240    1.2220    3.6880 c3        1 PPC      0.048000
      6 O1         -0.9910   -1.0650    0.0040 os        1 PPC     -0.763000
      7 O2          1.7010   -0.5330   -0.4480 oh        1 PPC     -0.400000
      8 O3          1.5080   -1.7970    1.8950 oh        1 PPC     -0.368000
      9 P           1.2950    2.1620    5.9250 p5        1 PPC      1.561500
     10 O1P        -0.1040    2.5120    6.3750 o         1 PPC     -0.954500
     11 O2P         2.1420    1.5130    6.9990 o         1 PPC     -0.954500
     12 O3P         2.0010    3.2580    5.1620 o         1 PPC     -0.954500
     13 PA         -1.6660   -1.0820   -1.6080 p5        1 PPC      2.113000
     14 O1A        -2.3470    0.2450   -1.6660 o         1 PPC     -0.930000
     15 O2A        -0.3480   -1.1490   -2.3240 o         1 PPC     -0.930000
     16 PB         -3.7000   -3.5280   -3.0020 p3        1 PPC      2.601000
     17 O1B        -3.0070   -4.8640   -2.9560 o         1 PPC     -1.261667
     18 O2B        -3.6680   -2.8630   -4.3470 o         1 PPC     -1.261667
     19 O3B        -5.0610   -3.5450   -2.3580 o         1 PPC     -1.261667
     20 C3A        -2.5850   -2.4020   -1.6180 c2        1 PPC     -1.517000
     21 O5          1.0950    0.8920    4.7880 os        1 PPC     -0.745000
     22 O4         -0.9740    0.2440    1.8540 os        1 PPC     -0.322000
     23 H1         -0.9810    1.0000   -0.0720 h2        1 PPC      0.114000
     24 H2          1.3740    1.2520    0.4980 h1        1 PPC      0.056000
     25 H3          2.2750    0.0100    2.4170 h1        1 PPC      0.111000
     26 H4         -0.2290   -0.8800    3.4170 h1        1 PPC      0.079000
     27 H51         0.8360    2.0300    3.0930 h1        1 PPC      0.039500
     28 H52        -0.6740    1.6160    4.0310 h1        1 PPC      0.039500
     29 HO2         1.0130   -0.9430   -1.0300 ho        1 PPC      0.283000
     30 HO3         0.8180   -2.1150    1.2920 ho        1 PPC      0.223000
     31 H3A1       -2.0250   -3.3140   -1.3500 ha        1 PPC      0.111000
     32 H3A2       -3.4860   -2.3030   -0.9900 ha        1 PPC      0.111000
@<TRIPOS>BOND
     1    1    2 1   
     2    1    6 1   
     3    1   22 1   
     4    1   23 1   
     5    2    3 1   
     6    2    7 1   
     7    2   24 1   
     8    3    4 1   
     9    3    8 1   
    10    3   25 1   
    11    4    5 1   
    12    4   22 1   
    13    4   26 1   
    14    5   21 1   
    15    5   27 1   
    16    5   28 1   
    17    6   13 1   
    18    7   29 1   
    19    8   30 1   
    20    9   10 1   
    21    9   11 1   
    22    9   12 1   
    23    9   21 1   
    24   13   14 1   
    25   13   15 1   
    26   13   20 1   
    27   16   17 1   
    28   16   18 1   
    29   16   19 1   
    30   20   31 1   
    31   20   32 1   
@<TRIPOS>SUBSTRUCTURE
     1 PPC         1 TEMP              0 ****  ****    0 ROOT
