@<TRIPOS>MOLECULE
molecule
   37    37     1     0     0
SMALL
bcc


@<TRIPOS>ATOM
      1 N1           0.0000     0.0000     0.0000 nb         1 PPD      -0.744000
      2 C2           1.3170     0.0000     0.0000 ca         1 PPD       0.301600
      3 C2A          2.0630    -0.0090    -1.3090 c3         1 PPD      -0.114400
      4 C3           2.0250     0.0000     1.1920 ca         1 PPD      -0.033200
      5 O3           3.3840    -0.0010     1.1880 oh         1 PPD      -0.499100
      6 C4           1.3240     0.0140     2.3950 ca         1 PPD      -0.061300
      7 C4A          2.0520     0.0210     3.7140 c3         1 PPD       0.202100
      8 C5          -0.0600     0.0140     2.3480 ca         1 PPD      -0.108600
      9 C6          -0.6950     0.0070     1.1200 ca         1 PPD       0.393200
     10 C5A         -0.8660     0.0220     3.6220 c3         1 PPD       0.173700
     11 O4P         -2.2590     0.0220     3.3060 os         1 PPD      -0.575200
     12 P           -3.0550     0.0290     4.7040 p5         1 PPD       1.148900
     13 O1P         -2.6920     1.2420     5.4700 o          1 PPD      -0.909833
     14 O2P         -4.6390     0.0290     4.4200 o          1 PPD      -0.909833
     15 O3P         -2.6600    -1.2790     5.5540 o          1 PPD      -0.909833
     16 N            2.2880    -1.3590     4.1510 n7         1 PPD      -0.736200
     17 CA           2.9970    -1.2810     5.4340 c3         1 PPD       0.081500
     18 CB           2.6410    -2.4980     6.2900 c3         1 PPD      -0.162400
     19 CG           1.1540    -2.5200     6.5370 c          1 PPD       0.874600
     20 OD1          0.4530    -1.6510     6.0770 o          1 PPD      -0.838300
     21 OD2          0.6100    -3.5050     7.2700 o          1 PPD      -0.838300
     22 C            4.4830    -1.2600     5.1870 c          1 PPD       0.866600
     23 O            5.2150    -0.6820     5.9550 o          1 PPD      -0.902800
     24 OXT          4.9940    -1.8810     4.1130 o          1 PPD      -0.902800
     25 H2A1         1.3580    -0.1060    -2.1260 hc         1 PPD       0.014700
     26 H2A2         2.6150     0.9170    -1.4170 hc         1 PPD       0.014700
     27 H2A3         2.7530    -0.8440    -1.3260 hc         1 PPD       0.014700
     28 HO3          3.6980     0.8710     1.0140 ho         1 PPD       0.376000
     29 H4A1         3.0010     0.5310     3.5990 h1         1 PPD       0.035700
     30 H4A2         1.4520     0.5370     4.4540 h1         1 PPD       0.035700
     31 H6          -1.7770     0.0070     1.0780 h4         1 PPD       0.054100
     32 H5A1        -0.6260     0.9090     4.1950 h1         1 PPD       0.112200
     33 H5A2        -0.6280    -0.8590     4.2050 h1         1 PPD       0.112200
     34 HN           2.8640    -1.8280     3.4790 hn         1 PPD       0.355800
     35 HA           2.7040    -0.3760     5.9540 h1         1 PPD       0.052700
     36 HB1          3.1640    -2.4390     7.2370 hc         1 PPD       0.010700
     37 HB2          2.9340    -3.4020     5.7710 hc         1 PPD       0.010700
@<TRIPOS>BOND
     1     1     2 ar
     2     1     9 ar
     3     2     3 1
     4     2     4 ar
     5     3    25 1
     6     3    26 1
     7     3    27 1
     8     4     5 1
     9     4     6 ar
    10     5    28 1
    11     6     7 1
    12     6     8 ar
    13     7    16 1
    14     7    29 1
    15     7    30 1
    16     8     9 ar
    17     8    10 1
    18     9    31 1
    19    10    11 1
    20    10    32 1
    21    10    33 1
    22    11    12 1
    23    12    13 1
    24    12    14 1
    25    12    15 1
    26    16    17 1
    27    16    34 1
    28    17    18 1
    29    17    22 1
    30    17    35 1
    31    18    19 1
    32    18    36 1
    33    18    37 1
    34    19    20 1
    35    19    21 1
    36    22    23 1
    37    22    24 1
@<TRIPOS>SUBSTRUCTURE
     1 PPD         1 TEMP              0 ****  ****    0 ROOT
