@<TRIPOS>MOLECULE
molecule
   41    41     1     0     0
SMALL
bcc


@<TRIPOS>ATOM
      1 N1           0.0000     0.0000     0.0000 na         1 PPE      -0.114100
      2 C2           1.3690     0.0000     0.0000 ca         1 PPE      -0.125600
      3 C2A          1.8610     0.0060    -1.4340 c3         1 PPE      -0.049800
      4 C3           2.0570     0.0000     1.2710 ca         1 PPE       0.134100
      5 O3           3.4070    -0.0000     1.1040 oh         1 PPE      -0.413100
      6 C4           1.4020    -0.0330     2.4980 ca         1 PPE       0.136700
      7 C4A          2.1650    -0.0600     3.8160 c3         1 PPE       0.167100
      8 C5          -0.0150    -0.0320     2.3410 ca         1 PPE      -0.090300
      9 C6          -0.7050    -0.0190     1.1480 ca         1 PPE      -0.119300
     10 C5A         -0.9760    -0.0890     3.5340 c3         1 PPE       0.275700
     11 OP4         -0.5100     0.3100     4.7690 os         1 PPE      -0.554200
     12 P           -1.4720     0.5880     6.0220 p5         1 PPE       1.326900
     13 OP1         -2.2580     1.7850     5.8670 o          1 PPE      -0.928500
     14 OP2         -0.5870     0.3730     7.2340 o          1 PPE      -0.928500
     15 OP3         -2.4990    -0.5160     5.9130 o          1 PPE      -0.928500
     16 NA           3.4140    -0.8560     3.4610 n7         1 PPE      -0.802200
     17 CAA          4.5810    -0.3780     4.2780 c3         1 PPE       0.103500
     18 CBA          4.2430    -0.3580     5.7620 c3         1 PPE      -0.075400
     19 CGA          4.3480    -1.7090     6.4510 c3         1 PPE      -0.233400
     20 CDA          3.2880    -2.6570     5.9220 c          1 PPE       0.912600
     21 OE1          3.6330    -3.3740     5.0090 o          1 PPE      -0.839800
     22 OE2          2.2060    -2.5950     6.5340 o          1 PPE      -0.839800
     23 CA           5.8240    -1.2370     3.9930 c          1 PPE       0.912600
     24 OA           5.7660    -1.7600     2.7350 o          1 PPE      -0.878300
     25 OXT          6.8260    -1.4080     4.8340 o          1 PPE      -0.878300
     26 HN1         -0.4890     0.0150    -0.8730 hn         1 PPE       0.271700
     27 H2A1         1.7030     0.9860    -1.8660 hc         1 PPE       0.050033
     28 H2A2         2.9170    -0.2320    -1.4540 hc         1 PPE       0.050033
     29 H2A3         1.3130    -0.7340    -2.0060 hc         1 PPE       0.050033
     30 HO3          3.6910     0.8580     0.8370 ho         1 PPE       0.394000
     31 H4A1         1.5910    -0.5670     4.5820 h1         1 PPE       0.124200
     32 H4A2         2.4250     0.9440     4.1290 h1         1 PPE       0.124200
     33 H6          -1.7620    -0.2570     1.1300 h4         1 PPE       0.183000
     34 H5A1        -1.3190    -1.1120     3.6290 h1         1 PPE       0.035200
     35 H5A2        -1.8330     0.5280     3.2930 h1         1 PPE       0.035200
     36 HNA          3.2540    -1.8260     3.6440 hn         1 PPE       0.421800
     37 HAA          4.8040     0.6380     3.9750 h1         1 PPE      -0.003300
     38 HBA1         3.2290     0.0070     5.8770 hc         1 PPE       0.015700
     39 HBA2         4.9150     0.3320     6.2570 hc         1 PPE       0.015700
     40 HGA1         4.2110    -1.5780     7.5170 hc         1 PPE       0.031200
     41 HGA2         5.3290    -2.1290     6.2650 hc         1 PPE       0.031200
@<TRIPOS>BOND
     1     1     2 1
     2     1     9 2
     3     1    26 1
     4     2     3 1
     5     2     4 ar
     6     3    27 1
     7     3    28 1
     8     3    29 1
     9     4     5 1
    10     4     6 ar
    11     5    30 1
    12     6     7 1
    13     6     8 ar
    14     7    16 1
    15     7    31 1
    16     7    32 1
    17     8     9 ar
    18     8    10 1
    19     9    33 1
    20    10    11 1
    21    10    34 1
    22    10    35 1
    23    11    12 1
    24    12    13 1
    25    12    14 1
    26    12    15 1
    27    16    17 1
    28    16    36 1
    29    17    18 1
    30    17    23 1
    31    17    37 1
    32    18    19 1
    33    18    38 1
    34    18    39 1
    35    19    20 1
    36    19    40 1
    37    19    41 1
    38    20    21 1
    39    20    22 1
    40    23    24 1
    41    23    25 1
@<TRIPOS>SUBSTRUCTURE
     1 PPE         1 TEMP              0 ****  ****    0 ROOT
