@<TRIPOS>MOLECULE
molecule
    7     6     1     0     0
SMALL
bcc


@<TRIPOS>ATOM
      1 C1          -0.1320     0.0120     1.1960 c          1 PPF       0.789600
      2 O1          -1.3950     0.0550    -1.2990 o          1 PPF      -0.964500
      3 O2           0.9730     1.1770    -1.0950 o          1 PPF      -0.964500
      4 O3           0.6920    -1.3280    -0.9920 o          1 PPF      -0.964500
      5 O4           0.9500    -0.0600     1.9850 o          1 PPF      -0.965300
      6 O5          -1.2310     0.1190     1.6870 o          1 PPF      -0.965300
      7 P1           0.0530    -0.0500    -0.6070 p5         1 PPF       1.035500
@<TRIPOS>BOND
     1     1     5 1
     2     1     6 1
     3     1     7 1
     4     2     7 1
     5     3     7 1
     6     4     7 1
@<TRIPOS>SUBSTRUCTURE
     1 PPF         1 TEMP              0 ****  ****    0 ROOT
