@<TRIPOS>MOLECULE
PPF
    7     6     1     0     0
SMALL
bcc


@<TRIPOS>ATOM
      1 C1         -0.1070    0.0170    1.1220 c         1 PPF      0.766600
      2 O1         -1.3220    0.0780   -1.2720 o         1 PPF     -0.992500
      3 O2          0.9140    1.1650   -1.0150 o         1 PPF     -0.992500
      4 O3          0.6920   -1.3720   -0.9650 o         1 PPF     -0.992500
      5 O4          0.9230   -0.0520    1.8920 o         1 PPF     -0.971800
      6 O5         -1.2400    0.1200    1.7240 o         1 PPF     -0.971800
      7 P1          0.0500   -0.0300   -0.6100 p5        1 PPF      1.153500
@<TRIPOS>BOND
     1    1    5 1   
     2    1    6 1   
     3    1    7 1   
     4    2    7 1   
     5    3    7 1   
     6    4    7 1   
@<TRIPOS>SUBSTRUCTURE
     1 PPF         1 TEMP              0 ****  ****    0 ROOT
