@<TRIPOS>MOLECULE
PPG
   43    43     1     0     0
SMALL
bcc


@<TRIPOS>ATOM
      1 N1         -0.2940    0.2230   -0.0280 nb        1 PPG     -0.682000
      2 C2          0.8530    0.8710   -0.3600 ca        1 PPG      0.295600
      3 C2A         1.0900    1.2860   -1.7740 c3        1 PPG     -0.103400
      4 C3          1.8570    1.1720    0.5980 ca        1 PPG      0.018800
      5 O3          2.9520    1.8260    0.0790 oh        1 PPG     -0.553100
      6 C4          1.6750    0.8030    1.9500 ca        1 PPG     -0.141300
      7 C4A         2.6520    1.0570    3.0650 c3        1 PPG      0.151100
      8 C5          0.4760    0.1510    2.2810 ca        1 PPG     -0.159600
      9 C6         -0.4660   -0.1220    1.2500 ca        1 PPG      0.362200
     10 C5A         0.1110   -0.3190    3.6720 c3        1 PPG      0.246700
     11 OP4        -1.2250   -0.1780    3.9460 os        1 PPG     -0.564200
     12 P          -2.1480   -1.6440    4.0790 p5        1 PPG      1.315900
     13 OP1        -1.1400   -2.6060    4.6510 o         1 PPG     -0.926167
     14 OP2        -3.2760   -1.2450    4.9870 o         1 PPG     -0.926167
     15 OP3        -2.5050   -1.8730    2.6300 o         1 PPG     -0.926167
     16 N4A         3.9010    1.6910    2.7150 n2        1 PPG     -0.631900
     17 CAI         4.8150    1.8910    3.6000 ce        1 PPG      0.418600
     18 CBC         6.1240    2.6390    3.2410 c         1 PPG      0.847300
     19 O2B         7.0960    1.9510    2.8170 o         1 PPG     -0.836800
     20 O3B         6.1570    3.8820    3.4330 o         1 PPG     -0.836800
     21 CBI         4.7160    1.5610    5.0320 ce        1 PPG     -0.325600
     22 CGI         5.3340    0.6270    5.7610 c2        1 PPG      0.031100
     23 OET         6.2670   -0.3310    5.4450 os        1 PPG     -0.364900
     24 CEI         6.3570   -0.7800    4.0900 c3        1 PPG      0.071400
     25 CFI         7.8020   -1.2650    3.8980 c3        1 PPG      0.158800
     26 NI          8.8080   -0.2350    3.8020 n3        1 PPG     -0.916800
     27 H2A1        1.2270    2.3950   -1.8160 hc        1 PPG      0.018033
     28 H2A2        0.2490    1.0000   -2.4490 hc        1 PPG      0.018033
     29 H2A3        2.0310    0.8100   -2.1460 hc        1 PPG      0.018033
     30 HO3         3.5870    1.9940    0.7970 ho        1 PPG      0.458000
     31 H4A1        2.8460    0.0600    3.5650 h1        1 PPG      0.052200
     32 H4A2        2.1190    1.7010    3.8310 h1        1 PPG      0.052200
     33 H6         -1.4090   -0.6850    1.5550 h4        1 PPG      0.145100
     34 H5A1        0.7000    0.2930    4.4220 h1        1 PPG      0.015200
     35 H5A2        0.4270   -1.4030    3.7670 h1        1 PPG      0.015200
     36 HBI         4.0190    2.2340    5.5690 ha        1 PPG      0.133000
     37 HGI         5.1640    0.5500    6.8540 h4        1 PPG      0.122000
     38 HEI1        5.6360   -1.6290    3.9670 h1        1 PPG      0.073700
     39 HEI2        6.1260    0.0400    3.3590 h1        1 PPG      0.073700
     40 HFI1        8.0720   -1.9380    4.7590 h1        1 PPG      0.028200
     41 HFI2        7.8250   -1.8760    2.9530 h1        1 PPG      0.028200
     42 HNI1        8.7440    0.3590    4.6090 hn        1 PPG      0.364300
     43 HNI2        8.6140    0.3500    3.0030 hn        1 PPG      0.364300
@<TRIPOS>BOND
     1    1    2 ar  
     2    1    9 ar  
     3    2    3 1   
     4    2    4 ar  
     5    3   27 1   
     6    3   28 1   
     7    3   29 1   
     8    4    5 1   
     9    4    6 ar  
    10    5   30 1   
    11    6    7 1   
    12    6    8 ar  
    13    7   16 1   
    14    7   31 1   
    15    7   32 1   
    16    8    9 ar  
    17    8   10 1   
    18    9   33 1   
    19   10   11 1   
    20   10   34 1   
    21   10   35 1   
    22   11   12 1   
    23   12   13 1   
    24   12   14 1   
    25   12   15 1   
    26   16   17 2   
    27   17   18 1   
    28   17   21 1   
    29   18   19 1   
    30   18   20 1   
    31   21   22 2   
    32   21   36 1   
    33   22   23 1   
    34   22   37 1   
    35   23   24 1   
    36   24   25 1   
    37   24   38 1   
    38   24   39 1   
    39   25   26 1   
    40   25   40 1   
    41   25   41 1   
    42   26   42 1   
    43   26   43 1   
@<TRIPOS>SUBSTRUCTURE
     1 PPG         1 TEMP              0 ****  ****    0 ROOT
