@<TRIPOS>MOLECULE
molecule
   44    44     1     0     0
SMALL
bcc


@<TRIPOS>ATOM
      1 N1           0.0000     0.0000     0.0000 nb         1 PPG      -0.708000
      2 C2           1.3180     0.0000     0.0000 ca         1 PPG       0.343600
      3 C2A          2.0630     0.0020    -1.3110 c3         1 PPG      -0.127400
      4 C3           2.0260     0.0000     1.1930 ca         1 PPG      -0.034200
      5 O3           3.3850     0.0020     1.1880 oh         1 PPG      -0.516100
      6 C4           1.3260    -0.0010     2.3940 ca         1 PPG      -0.065300
      7 C4A          2.0550    -0.0010     3.7130 c3         1 PPG       0.134100
      8 C5          -0.0590    -0.0020     2.3490 ca         1 PPG      -0.137600
      9 C6          -0.6950    -0.0020     1.1220 ca         1 PPG       0.436200
     10 C5A         -0.8640    -0.0030     3.6240 c3         1 PPG       0.248700
     11 OP4         -2.2530    -0.1210     3.3100 os         1 PPG      -0.592200
     12 P           -3.3960    -0.2720     4.4330 p5         1 PPG       1.201900
     13 OP1         -3.4530     1.0680     5.3240 o          1 PPG      -0.816833
     14 OP2         -4.8210    -0.5050     3.7220 o          1 PPG      -0.816833
     15 OP3         -3.0840    -1.4280     5.3020 o          1 PPG      -0.816833
     16 N4A          2.3810     1.3770     4.0900 n2         1 PPG      -0.508900
     17 CAI          3.6270     1.7440     4.2060 ce         1 PPG       0.407600
     18 CBC          3.9600     3.0990     4.7230 c          1 PPG       0.812300
     19 O2B          2.9820     3.9000     5.1870 o          1 PPG      -0.821300
     20 O3B          5.1110     3.4820     4.7280 o          1 PPG      -0.821300
     21 CBI          4.7020     0.8220     3.8240 ce         1 PPG      -0.270600
     22 CGI          5.9820     1.1490     4.0610 c2         1 PPG      -0.060900
     23 OET          6.9760     0.3650     3.5900 os         1 PPG      -0.384900
     24 CEI          8.3100     0.7110     3.9700 c3         1 PPG       0.131400
     25 CFI          9.3000    -0.2060     3.2490 c3         1 PPG       0.069800
     26 NI           9.2090     0.0180     1.8010 nz         1 PPG      -0.804600
     27 H2A1         1.3620     0.1370    -2.1250 hc         1 PPG       0.030367
     28 H2A2         2.7830     0.8110    -1.3160 hc         1 PPG       0.030367
     29 H2A3         2.5800    -0.9420    -1.4330 hc         1 PPG       0.030367
     30 HO3          3.6990    -0.8190     0.8470 ho         1 PPG       0.384000
     31 H4A1         1.4240    -0.4430     4.4750 h1         1 PPG       0.048700
     32 H4A2         2.9680    -0.5760     3.6210 h1         1 PPG       0.048700
     33 H6          -1.7770    -0.0020     1.0800 h4         1 PPG       0.073100
     34 H5A1        -0.6920     0.9220     4.1610 h1         1 PPG       0.052700
     35 H5A2        -0.5610    -0.8400     4.2420 h1         1 PPG       0.052700
     36 HBI          4.4680    -0.0710     3.2570 ha         1 PPG       0.124000
     37 HGI          6.2200     2.0940     4.5330 h4         1 PPG       0.221000
     38 HEI1         8.4220     0.5930     5.0410 h1         1 PPG       0.053200
     39 HEI2         8.5070     1.7410     3.6980 h1         1 PPG       0.053200
     40 HFI1        10.3060     0.0130     3.5860 hx         1 PPG       0.078700
     41 HFI2         9.0620    -1.2390     3.4710 hx         1 PPG       0.078700
     42 HNI1         8.3700    -0.4010     1.4510 hn         1 PPG       0.385800
     43 HNI2        10.0010    -0.3950     1.3490 hn         1 PPG       0.385800
     44 HI3          9.1940     1.0010     1.6150 hn         1 PPG       0.385800
@<TRIPOS>BOND
     1     1     2 ar
     2     1     9 ar
     3     2     3 1
     4     2     4 ar
     5     4     5 1
     6     4     6 ar
     7     6     7 1
     8     6     8 ar
     9     7    16 1
    10     8     9 ar
    11     8    10 1
    12    10    11 1
    13    11    12 1
    14    12    13 1
    15    12    14 1
    16    12    15 1
    17    16    17 2
    18    17    18 1
    19    17    21 1
    20    18    19 1
    21    18    20 1
    22    21    22 2
    23    22    23 1
    24    23    24 1
    25    24    25 1
    26    25    26 1
    27     3    27 1
    28     3    28 1
    29     3    29 1
    30     5    30 1
    31     7    31 1
    32     7    32 1
    33     9    33 1
    34    10    34 1
    35    10    35 1
    36    21    36 1
    37    22    37 1
    38    24    38 1
    39    24    39 1
    40    25    40 1
    41    25    41 1
    42    26    42 1
    43    26    43 1
    44    44    26 1
@<TRIPOS>SUBSTRUCTURE
     1 PPG         1 TEMP              0 ****  ****    0 ROOT
