@<TRIPOS>MOLECULE
molecule
   10     9     1     0     0
SMALL
bcc


@<TRIPOS>ATOM
      1 C1           0.0000     0.0000     0.0000 c          1 PPI       0.890600
      2 C2           1.5050     0.0000     0.0000 c3         1 PPI      -0.186400
      3 C3           2.0160     0.0000     1.4420 c3         1 PPI      -0.070100
      4 O1          -0.6040     0.0000     1.0460 o          1 PPI      -0.860800
      5 O2          -0.6720     0.0000    -1.1620 o          1 PPI      -0.860800
      6 H21          1.8660     0.8840    -0.5110 hc         1 PPI       0.023700
      7 H22          1.8660    -0.8840    -0.5110 hc         1 PPI       0.023700
      8 H31          1.6550     0.8850     1.9530 hc         1 PPI       0.013033
      9 H32          3.0990    -0.0000     1.4410 hc         1 PPI       0.013033
     10 H33          1.6550    -0.8850     1.9530 hc         1 PPI       0.013033
@<TRIPOS>BOND
     1     1     2 1
     2     1     4 1
     3     1     5 1
     4     2     3 1
     5     2     6 1
     6     2     7 1
     7     3     8 1
     8     3     9 1
     9     3    10 1
@<TRIPOS>SUBSTRUCTURE
     1 PPI         1 TEMP              0 ****  ****    0 ROOT
