@<TRIPOS>MOLECULE
PPI
   10     9     1     0     0
SMALL
bcc


@<TRIPOS>ATOM
      1 C1         -0.0410    0.1130   -0.0060 c         1 PPI      0.907600
      2 C2          1.4950    0.1890    0.0460 c3        1 PPI     -0.197400
      3 C3          2.0240   -0.2350    1.3870 c3        1 PPI     -0.066100
      4 O1         -0.7040    0.7030    0.8970 o         1 PPI     -0.855300
      5 O2         -0.5700   -0.5220   -0.9630 o         1 PPI     -0.855300
      6 H21         1.7920    1.2480   -0.1630 hc        1 PPI      0.016700
      7 H22         1.9230   -0.4540   -0.7630 hc        1 PPI      0.016700
      8 H31         3.1210   -0.0370    1.4720 hc        1 PPI      0.011367
      9 H32         1.4920    0.3240    2.1960 hc        1 PPI      0.011367
     10 H33         1.8530   -1.3270    1.5490 hc        1 PPI      0.011367
@<TRIPOS>BOND
     1    1    2 1   
     2    1    4 1   
     3    1    5 1   
     4    2    3 1   
     5    2    6 1   
     6    2    7 1   
     7    3    8 1   
     8    3    9 1   
     9    3   10 1   
@<TRIPOS>SUBSTRUCTURE
     1 PPI         1 TEMP              0 ****  ****    0 ROOT
