@<TRIPOS>MOLECULE
molecule
   40    40     1     0     0
SMALL
bcc


@<TRIPOS>ATOM
      1 N1           0.0000     0.0000     0.0000 nb         1 PPJ      -0.699000
      2 C2           1.3520     0.0000     0.0000 ca         1 PPJ       0.294600
      3 C6          -0.6000    -0.0020     1.2110 ca         1 PPJ       0.365200
      4 C2A          2.0040     0.0030    -1.3440 c3         1 PPJ      -0.129400
      5 C3           2.1280     0.0000     1.1480 ca         1 PPJ       0.017800
      6 O3           3.4860     0.0000     1.0740 oh         1 PPJ      -0.496100
      7 C4           1.4670    -0.0020     2.3630 ca         1 PPJ      -0.089900
      8 C4A          2.2470    -0.0040     3.6120 ce         1 PPJ       0.401800
      9 C5           0.0850    -0.0030     2.4170 ca         1 PPJ      -0.111600
     10 N            3.4080     0.5440     3.6900 n2         1 PPJ      -0.543900
     11 C5A         -0.6720    -0.0050     3.7000 c3         1 PPJ       0.246700
     12 OP4         -0.9110    -1.3480     4.1070 os         1 PPJ      -0.576200
     13 P           -1.7220    -1.5990     5.4820 p5         1 PPJ       1.161900
     14 OP1         -0.8690    -0.7450     6.5590 o          1 PPJ      -0.907833
     15 OP2         -1.9340    -3.0400     5.8420 o          1 PPJ      -0.907833
     16 OP3         -3.0710    -0.7260     5.3000 o          1 PPJ      -0.907833
     17 CA           4.0050     0.4260     5.0250 c3         1 PPJ       0.004500
     18 CB           4.8350    -0.8610     5.1250 c3         1 PPJ      -0.033400
     19 C            4.8160     1.6780     5.2730 c          1 PPJ       0.925600
     20 CG           6.0390    -0.9500     4.1720 c3         1 PPJ       0.150100
     21 CD           6.8070    -2.2480     4.3880 c3         1 PPJ      -0.131100
     22 O            4.9970     2.5750     4.4590 o          1 PPJ      -0.863800
     23 OXT          5.3320     1.7110     6.5290 o          1 PPJ      -0.863800
     24 OGL          6.9450     0.1240     4.4010 oh         1 PPJ      -0.554800
     25 HC6         -1.6830    -0.0030     1.2420 h4         1 PPJ       0.021100
     26 H2A1         1.2510    -0.1430    -2.1100 hc         1 PPJ       0.026033
     27 H2A2         2.5010     0.9520    -1.5030 hc         1 PPJ       0.026033
     28 H2A3         2.7310    -0.7980    -1.3950 hc         1 PPJ       0.026033
     29 HO3          3.7790     0.8010     0.6720 ho         1 PPJ       0.406000
     30 H4A          1.8280    -0.4810     4.4900 h4         1 PPJ       0.031800
     31 H5A1        -0.0940     0.5050     4.4610 h1         1 PPJ       0.049200
     32 H5A2        -1.6180     0.5050     3.5620 h1         1 PPJ       0.049200
     33 HA           3.2080     0.3790     5.7570 h1         1 PPJ       0.072700
     34 HCB          5.2000    -0.9490     6.1410 hc         1 PPJ       0.043700
     35 HB1          4.1810    -1.7010     4.9240 hc         1 PPJ       0.043700
     36 HCG          5.6870    -0.9090     3.1480 h1         1 PPJ       0.037700
     37 HC1          7.5700    -2.3470     3.6260 hc         1 PPJ       0.019367
     38 HC2          7.2730    -2.2330     5.3660 hc         1 PPJ       0.019367
     39 HC3          6.1240    -3.0860     4.3260 hc         1 PPJ       0.019367
     40 HGL          7.5840     0.1490     3.7080 ho         1 PPJ       0.358000
@<TRIPOS>BOND
     1     1     2 ar
     2     1     3 ar
     3     2     4 1
     4     2     5 ar
     5     3     9 ar
     6     3    25 1
     7     4    26 1
     8     4    27 1
     9     4    28 1
    10     5     6 1
    11     5     7 ar
    12     6    29 1
    13     7     8 1
    14     7     9 ar
    15     8    10 2
    16     8    30 1
    17     9    11 1
    18    10    17 1
    19    11    12 1
    20    11    31 1
    21    11    32 1
    22    12    13 1
    23    13    14 1
    24    13    15 1
    25    13    16 1
    26    17    18 1
    27    17    19 1
    28    17    33 1
    29    18    20 1
    30    18    34 1
    31    18    35 1
    32    19    22 1
    33    19    23 1
    34    20    21 1
    35    20    24 1
    36    20    36 1
    37    21    37 1
    38    21    38 1
    39    21    39 1
    40    24    40 1
@<TRIPOS>SUBSTRUCTURE
     1 PPJ         1 TEMP              0 ****  ****    0 ROOT
