@<TRIPOS>MOLECULE
PPJ
   40    41     1     0     0
SMALL
bcc


@<TRIPOS>ATOM
      1 N1           0.0000     0.0000     0.0000 n2         1 PPJ      -0.087000
      2 C2           1.3520     0.0000     0.0000 c2         1 PPJ      -0.201000
      3 C6          -0.6000    -0.0020     1.2110 c2         1 PPJ      -0.125000
      4 C2A          2.0040     0.0030    -1.3440 c3         1 PPJ      -0.050000
      5 C3           2.1280     0.0000     1.1480 c2         1 PPJ       0.055000
      6 O3           3.4860     0.0000     1.0740 oh         1 PPJ      -0.222000
      7 C4           1.4670    -0.0020     2.3630 c3         1 PPJ      -0.164000
      8 C4A          2.2470    -0.0040     3.6120 c2         1 PPJ      -0.342000
      9 C5           0.0850    -0.0030     2.4170 c2         1 PPJ       0.014000
     10 N            3.4080     0.5440     3.6900 n2         1 PPJ       0.008000
     11 C5A         -0.6720    -0.0050     3.7000 c3         1 PPJ       0.154000
     12 OP4         -0.9110    -1.3480     4.1070 os         1 PPJ      -0.620000
     13 P           -1.7220    -1.5990     5.4820 p5         1 PPJ       0.894500
     14 OP1         -0.8690    -0.7450     6.5590 o          1 PPJ      -0.749500
     15 OP2         -1.9340    -3.0400     5.8420 o          1 PPJ      -0.749500
     16 OP3         -3.0710    -0.7260     5.3000 o          1 PPJ      -0.749500
     17 CA           4.0050     0.4260     5.0250 c3         1 PPJ      -0.091000
     18 CB           4.8350    -0.8610     5.1250 c3         1 PPJ      -0.061000
     19 C            4.8160     1.6780     5.2730 c2         1 PPJ       0.419000
     20 CG           6.0390    -0.9500     4.1720 c3         1 PPJ       0.069000
     21 CD           6.8070    -2.2480     4.3880 c3         1 PPJ      -0.159000
     22 O            4.9970     2.5750     4.4590 o          1 PPJ      -0.653500
     23 OXT          5.3320     1.7110     6.5290 o          1 PPJ      -0.653500
     24 OGL          6.9450     0.1240     4.4010 oh         1 PPJ      -0.261000
     25 HC6         -1.6830    -0.0030     1.2420 h4         1 PPJ       0.122000
     26 H2A1         1.2510    -0.1420    -2.1100 hc         1 PPJ       0.029333
     27 H2A2         2.5020     0.9520    -1.5020 hc         1 PPJ       0.029333
     28 H2A3         2.7300    -0.7990    -1.3950 hc         1 PPJ       0.029333
     29 HO3          3.7770     0.7870     0.6430 ho         1 PPJ       0.184000
     30 H4A          1.7610     0.8700     3.1960 DU         1 PPJ       0.317000
     31 H5A1        -0.0940     0.5050     4.4610 h1         1 PPJ       0.047500
     32 H5A2        -1.6180     0.5050     3.5620 h1         1 PPJ       0.047500
     33 HA           3.2080     0.3790     5.7570 h1         1 PPJ       0.113000
     34 HCB          5.2000    -0.9490     6.1410 hc         1 PPJ       0.064000
     35 HB1          4.1810    -1.7010     4.9240 hc         1 PPJ       0.064000
     36 HCG          5.6870    -0.9090     3.1480 h1         1 PPJ       0.044000
     37 HC1          7.2630    -2.2380     5.3700 hc         1 PPJ       0.030667
     38 HC2          7.5770    -2.3410     3.6330 hc         1 PPJ       0.030667
     39 HC3          6.1260    -3.0870     4.3150 hc         1 PPJ       0.030667
     40 HGL          7.5880     0.1450     3.7110 ho         1 PPJ       0.140000
@<TRIPOS>BOND
     1     1     2 1   
     2     1     3 1   
     3     2     4 1   
     4     2     5 1   
     5     3     9 1   
     6     3    25 1   
     7     4    26 1   
     8     4    27 1   
     9     4    28 1   
    10     5     6 1   
    11     5     7 1   
    12     6    29 1   
    13     7     8 1   
    14     7     9 1   
    15     7    30 1   
    16     8    10 1   
    17     8    30 1   
    18     9    11 1   
    19    10    17 1   
    20    11    12 1   
    21    11    31 1   
    22    11    32 1   
    23    12    13 1   
    24    13    14 1   
    25    13    15 1   
    26    13    16 1   
    27    17    18 1   
    28    17    19 1   
    29    17    33 1   
    30    18    20 1   
    31    18    34 1   
    32    18    35 1   
    33    19    22 1   
    34    19    23 1   
    35    20    21 1   
    36    20    24 1   
    37    20    36 1   
    38    21    37 1   
    39    21    38 1   
    40    21    39 1   
    41    24    40 1   
@<TRIPOS>SUBSTRUCTURE
     1 PPJ         1 TEMP              0 ****  ****    0 ROOT
