@<TRIPOS>MOLECULE
PPK
   14    13     1     0     0
SMALL
bcc


@<TRIPOS>ATOM
      1 O1G          0.0000     0.0000     0.0000 o          1 PPK      -0.801500
      2 PG           1.6110     0.0000     0.0000 p5         1 PPK       0.559800
      3 O2G          2.1460     0.0000     1.5170 o          1 PPK      -0.801500
      4 O3G          2.1030    -1.2080    -0.6980 o          1 PPK      -0.801500
      5 N3B          2.1720     1.3740    -0.7920 n7         1 PPK      -0.513400
      6 PB           3.8520     1.3030    -0.7510 p5         1 PPK       0.674700
      7 O1B          4.3500     1.2820     0.7780 o          1 PPK      -0.632500
      8 O2B          4.3110     0.0760    -1.4380 o          1 PPK      -0.632500
      9 O3A          4.4610     2.5940    -1.4960 os         1 PPK      -0.500800
     10 PA           6.0640     2.4620    -1.4190 p5         1 PPK       0.714900
     11 O1A          6.7430     3.7270    -2.1480 o          1 PPK      -0.819833
     12 O2A          6.5250     2.4210     0.1220 o          1 PPK      -0.819833
     13 O4A          6.4890     1.2170    -2.0950 o          1 PPK      -0.819833
     14 H3B          1.7050     2.2510    -0.6660 hn         1 PPK       0.195800
@<TRIPOS>BOND
     1     1     2 1   
     2     2     3 1   
     3     2     4 1   
     4     2     5 1   
     5     5     6 1   
     6     5    14 1   
     7     6     7 1   
     8     6     8 1   
     9     6     9 1   
    10     9    10 1   
    11    10    11 1   
    12    10    12 1   
    13    10    13 1   
@<TRIPOS>SUBSTRUCTURE
     1 PPK         1 TEMP              0 ****  ****    0 ROOT
