@<TRIPOS>MOLECULE
PPL
   33    33     1     0     0
SMALL
bcc


@<TRIPOS>ATOM
      1 N1           0.0000     0.0000     0.0000 n7         1 PPL      -0.534200
      2 C2           1.4670     0.0000     0.0000 c3         1 PPL       0.043500
      3 C3           1.9820     0.0000     1.4390 c3         1 PPL      -0.014400
      4 C4           1.5010     1.2700     2.1480 c3         1 PPL      -0.024400
      5 C5          -0.0250     1.3480     2.0460 c3         1 PPL      -0.024400
      6 C6          -0.4370     1.2770     0.5750 c3         1 PPL       0.136800
      7 C            1.9670    -1.2300    -0.7120 c          1 PPL       0.570100
      8 O            1.3110    -2.2490    -0.6930 o          1 PPL      -0.624100
      9 N            3.1420    -1.1960    -1.3690 ns         1 PPL      -0.196900
     10 C1'          3.6290    -2.3930    -2.0600 c3         1 PPL       0.012400
     11 C2'          4.9760    -2.0870    -2.7200 c3         1 PPL      -0.017100
     12 C3'          2.6200    -2.8090    -3.1310 c3         1 PPL      -0.017100
     13 C4'          3.8020    -3.5300    -1.0530 c3         1 PPL      -0.017100
     14 HN1         -0.3340    -0.0740    -0.9410 hn         1 PPL       0.256800
     15 H2           1.8250     0.8870    -0.5090 h1         1 PPL       0.006700
     16 H31          1.6000    -0.8700     1.9590 hc         1 PPL       0.025700
     17 H32          3.0650    -0.0220     1.4340 hc         1 PPL       0.025700
     18 H41          1.7930     1.2360     3.1900 hc         1 PPL       0.012200
     19 H42          1.9400     2.1390     1.6710 hc         1 PPL       0.012200
     20 H51         -0.4650     0.5170     2.5840 hc         1 PPL       0.021700
     21 H52         -0.3680     2.2830     2.4720 hc         1 PPL       0.021700
     22 H61         -1.5140     1.3550     0.4990 h1         1 PPL       0.004700
     23 H62          0.0280     2.0920     0.0330 h1         1 PPL       0.004700
     24 HN           3.6740    -0.3490    -1.4000 hn         1 PPL       0.172500
     25 H2'1         5.3240    -2.9640    -3.2530 hc         1 PPL       0.015922
     26 H2'2         4.8590    -1.2650    -3.4150 hc         1 PPL       0.015922
     27 H2'3         5.6980    -1.8170    -1.9590 hc         1 PPL       0.015922
     28 H3'1         1.7750    -3.2970    -2.6610 hc         1 PPL       0.015922
     29 H3'2         3.0920    -3.4940    -3.8260 hc         1 PPL       0.015922
     30 H3'3         2.2780    -1.9310    -3.6660 hc         1 PPL       0.015922
     31 H4'1         2.8400    -3.9890    -0.8590 hc         1 PPL       0.015922
     32 H4'2         4.4810    -4.2710    -1.4570 hc         1 PPL       0.015922
     33 H4'3         4.2060    -3.1350    -0.1290 hc         1 PPL       0.015922
@<TRIPOS>BOND
     1     1     2 1   
     2     1     6 1   
     3     1    14 1   
     4     2     3 1   
     5     2     7 1   
     6     2    15 1   
     7     3     4 1   
     8     3    16 1   
     9     3    17 1   
    10     4     5 1   
    11     4    18 1   
    12     4    19 1   
    13     5     6 1   
    14     5    20 1   
    15     5    21 1   
    16     6    22 1   
    17     6    23 1   
    18     7     8 2   
    19     7     9 1   
    20     9    10 1   
    21     9    24 1   
    22    10    11 1   
    23    10    12 1   
    24    10    13 1   
    25    11    25 1   
    26    11    26 1   
    27    11    27 1   
    28    12    28 1   
    29    12    29 1   
    30    12    30 1   
    31    13    31 1   
    32    13    32 1   
    33    13    33 1   
@<TRIPOS>SUBSTRUCTURE
     1 PPL         1 TEMP              0 ****  ****    0 ROOT
