@<TRIPOS>MOLECULE
molecule
    8     7     1     0     0
SMALL
bcc


@<TRIPOS>ATOM
      1 CM           0.0000     0.0000     0.0000 c3         1 PPM      -0.273300
      2 P            1.8230     0.0000     0.0000 p5         1 PPM       1.063700
      3 O1P          2.3170     0.0000     1.3960 o          1 PPM      -0.929167
      4 O2P          2.3600    -1.3150    -0.7590 o          1 PPM      -0.929167
      5 O3P          2.3600     1.3150    -0.7590 o          1 PPM      -0.929167
      6 HM1         -0.3610     0.8850     0.5110 hc         1 PPM      -0.000967
      7 HM2         -0.3610    -0.8840     0.5110 hc         1 PPM      -0.000967
      8 HM3         -0.3610    -0.0000    -1.0210 hc         1 PPM      -0.000967
@<TRIPOS>BOND
     1     1     2 1
     2     1     6 1
     3     1     7 1
     4     1     8 1
     5     2     3 1
     6     2     4 1
     7     2     5 1
@<TRIPOS>SUBSTRUCTURE
     1 PPM         1 TEMP              0 ****  ****    0 ROOT
