@<TRIPOS>MOLECULE
molecule
   14    15     1     0     0
SMALL
bcc


@<TRIPOS>ATOM
      1 O6           0.0000     0.0000     0.0000 oh         1 PPO      -0.591300
      2 C6           1.3540     0.0000     0.0000 ca         1 PPO       0.747600
      3 C5           2.0720     0.0000     1.2090 ca         1 PPO      -0.234200
      4 N7           1.7070    -0.0130     2.5160 ne         1 PPO      -0.127400
      5 N8           2.6470    -0.0170     3.3150 n2         1 PPO      -0.145200
      6 C9           3.9170    -0.0100     2.5700 c3         1 PPO      -0.052500
      7 C4           3.4700    -0.0030     1.1270 ca         1 PPO       0.434600
      8 N3           4.0620     0.0040    -0.0410 nb         1 PPO      -0.735000
      9 C2           3.3490     0.0100    -1.1560 ca         1 PPO       0.738900
     10 N1           2.0310     0.0070    -1.1420 nb         1 PPO      -0.797000
     11 HO6         -0.3140    -0.7040    -0.5430 ho         1 PPO       0.447000
     12 HC91         4.4870     0.8830     2.7960 h1         1 PPO       0.120700
     13 HC92         4.4900    -0.9040     2.7860 h1         1 PPO       0.120700
     14 HC2          3.8640     0.0160    -2.1090 h5         1 PPO       0.072100
@<TRIPOS>BOND
     1     1     2 1
     2     1    11 1
     3     2     3 ar
     4     2    10 ar
     5     3     4 1
     6     3     7 ar
     7     4     5 2
     8     5     6 1
     9     6     7 1
    10     6    12 1
    11     6    13 1
    12     7     8 ar
    13     8     9 ar
    14     9    10 ar
    15     9    14 1
@<TRIPOS>SUBSTRUCTURE
     1 PPO         1 TEMP              0 ****  ****    0 ROOT
