@<TRIPOS>MOLECULE
PPP
   23    23     1     0     0
SMALL
bcc


@<TRIPOS>ATOM
      1 C1          0.1380   -0.2290   -0.2080 c3        1 PPP      0.090400
      2 C2          1.5340    0.3710    0.0050 c3        1 PPP      0.147100
      3 C3          2.0780   -0.0280    1.3760 c3        1 PPP     -0.036100
      4 C1'         3.5640   -0.0870    1.4060 ca        1 PPP     -0.083300
      5 C2'         4.3210    0.9980    0.9480 ca        1 PPP     -0.125000
      6 C3'         5.7130    0.9550    1.0010 ca        1 PPP     -0.131000
      7 C4'         6.3600   -0.1710    1.5110 ca        1 PPP     -0.131000
      8 C5'         5.6110   -1.2540    1.9670 ca        1 PPP     -0.131000
      9 C6'         4.2180   -1.2140    1.9150 ca        1 PPP     -0.125000
     10 O1         -0.3090    0.2530   -1.4660 oh        1 PPP     -0.612800
     11 O2          1.4650    1.7910   -0.0250 oh        1 PPP     -0.606800
     12 H11        -0.5580    0.1050    0.6060 h1        1 PPP      0.034700
     13 H12         0.1920   -1.3490   -0.2240 h1        1 PPP      0.034700
     14 H2          2.2170    0.0180   -0.8170 h1        1 PPP      0.055700
     15 H31         1.6470   -1.0250    1.6590 hc        1 PPP      0.061700
     16 H32         1.7280    0.7250    2.1350 hc        1 PPP      0.061700
     17 H2'         3.8000    1.8830    0.5460 ha        1 PPP      0.140000
     18 H3'         6.3010    1.8120    0.6400 ha        1 PPP      0.130000
     19 H4'         7.4580   -0.2030    1.5520 ha        1 PPP      0.129000
     20 H5'         6.1180   -2.1430    2.3700 ha        1 PPP      0.130000
     21 H6'         3.6330   -2.0730    2.2780 ha        1 PPP      0.140000
     22 HO1        -1.2240   -0.0350   -1.5660 ho        1 PPP      0.408000
     23 HO2         1.0400    2.0290   -0.8590 ho        1 PPP      0.419000
@<TRIPOS>BOND
     1    1    2 1   
     2    1   10 1   
     3    1   12 1   
     4    1   13 1   
     5    2    3 1   
     6    2   11 1   
     7    2   14 1   
     8    3    4 1   
     9    3   15 1   
    10    3   16 1   
    11    4    5 ar  
    12    4    9 ar  
    13    5    6 ar  
    14    5   17 1   
    15    6    7 ar  
    16    6   18 1   
    17    7    8 ar  
    18    7   19 1   
    19    8    9 ar  
    20    8   20 1   
    21    9   21 1   
    22   10   22 1   
    23   11   23 1   
@<TRIPOS>SUBSTRUCTURE
     1 PPP         1 TEMP              0 ****  ****    0 ROOT
