@<TRIPOS>MOLECULE
molecule
   23    23     1     0     0
SMALL
bcc


@<TRIPOS>ATOM
      1 C1           0.0000     0.0000     0.0000 c3         1 PPP       0.112400
      2 C2           1.5300     0.0000     0.0000 c3         1 PPP       0.156100
      3 C3           2.0410     0.0000     1.4410 c3         1 PPP      -0.034100
      4 C1'          3.5460    -0.0000     1.4400 ca         1 PPP      -0.081300
      5 C2'          4.2380     1.1960     1.4390 ca         1 PPP      -0.116000
      6 C3'          5.6210     1.1950     1.4380 ca         1 PPP      -0.130000
      7 C4'          6.3110    -0.0030     1.4390 ca         1 PPP      -0.129000
      8 C5'          5.6200    -1.1990     1.4410 ca         1 PPP      -0.130000
      9 C6'          4.2380    -1.1980     1.4460 ca         1 PPP      -0.116000
     10 O1          -0.4780    -0.0000    -1.3470 oh         1 PPP      -0.612800
     11 O2           2.0060     1.1650    -0.6740 oh         1 PPP      -0.598800
     12 H11         -0.3610     0.8840     0.5110 h1         1 PPP       0.028200
     13 H12         -0.3610    -0.8840     0.5110 h1         1 PPP       0.028200
     14 H2           1.8900    -0.8850    -0.5110 h1         1 PPP       0.043700
     15 H31          1.6800    -0.8840     1.9530 hc         1 PPP       0.056700
     16 H32          1.6810     0.8850     1.9520 hc         1 PPP       0.056700
     17 H2'          3.6970     2.1340     1.4380 ha         1 PPP       0.132500
     18 H3'          6.1630     2.1320     1.4370 ha         1 PPP       0.128500
     19 H4'          7.3940    -0.0030     1.4370 ha         1 PPP       0.127000
     20 H5'          6.1610    -2.1370     1.4430 ha         1 PPP       0.128500
     21 H6'          3.6960    -2.1360     1.4470 ha         1 PPP       0.132500
     22 HO1         -1.4150    -0.1090    -1.3480 ho         1 PPP       0.405000
     23 HO2          2.1370     0.9690    -1.5870 ho         1 PPP       0.413000
@<TRIPOS>BOND
     1     1     2 1
     2     1    10 1
     3     1    12 1
     4     1    13 1
     5     2     3 1
     6     2    11 1
     7     2    14 1
     8     3     4 1
     9     3    15 1
    10     3    16 1
    11     4     5 ar
    12     4     9 ar
    13     5     6 ar
    14     5    17 1
    15     6     7 ar
    16     6    18 1
    17     7     8 ar
    18     7    19 1
    19     8     9 ar
    20     8    20 1
    21     9    21 1
    22    10    22 1
    23    11    23 1
@<TRIPOS>SUBSTRUCTURE
     1 PPP         1 TEMP              0 ****  ****    0 ROOT
