@<TRIPOS>MOLECULE
PPQ
   23    22     1     0     0
SMALL
bcc


@<TRIPOS>ATOM
      1 NP          0.1340   -0.6450    0.9450 n4        1 PPQ     -0.822600
      2 CAP         1.2780    0.0840    0.3210 c3        1 PPQ     -0.078500
      3 CBP         2.4230    0.3670    1.2760 c3        1 PPQ     -0.073400
      4 CGP         2.2170    1.5800    2.1590 c3        1 PPQ     -0.433600
      5 PDP         1.8790    1.1510    3.7060 p5        1 PPQ      1.500100
      6 CEP         1.4590    2.5340    4.4710 c3        1 PPQ     -0.476300
      7 OEA         2.7560    0.2330    4.4180 o         1 PPQ     -0.863300
      8 OEB         0.4930    0.2970    3.5550 oh        1 PPQ     -0.835400
      9 CP          1.7880   -0.7670   -0.9560 c         1 PPQ      0.939600
     10 OP          2.8870   -0.4240   -1.4170 o         1 PPQ     -0.756300
     11 OTP         0.9780   -1.6490   -1.3390 o         1 PPQ     -0.756300
     12 HNP1       -0.5230   -0.0120    1.3940 hn        1 PPQ      0.447467
     13 HNP2       -0.3170   -1.1850    0.1780 hn        1 PPQ      0.447467
     14 HAP         0.8740    1.0430   -0.1060 hx        1 PPQ      0.085700
     15 HBP1        3.3230    0.5200    0.6070 hc        1 PPQ      0.099700
     16 HBP2        2.6560   -0.5260    1.9190 hc        1 PPQ      0.099700
     17 HGP1        3.1560    2.1970    2.1060 hc        1 PPQ      0.108700
     18 HGP2        1.4300    2.2390    1.7070 hc        1 PPQ      0.108700
     19 HEP1        1.7800    2.5270    5.5450 hc        1 PPQ      0.112367
     20 HEP2        1.9080    3.4570    4.0300 hc        1 PPQ      0.112367
     21 HEP3        0.3540    2.7090    4.4850 hc        1 PPQ      0.112367
     22 HEB         0.4210   -0.4370    4.1620 ho        1 PPQ      0.472000
     23 HP3         0.4820   -1.3020    1.6440 hn        1 PPQ      0.447467
@<TRIPOS>BOND
     1    1    2 1
     2    1   12 1
     3    1   13 1
     4    1   23 1
     5    2    3 1
     6    2    9 1
     7    2   14 1
     8    3    4 1
     9    3   15 1
    10    3   16 1
    11    4    5 1
    12    4   17 1
    13    4   18 1
    14    5    6 1
    15    5    7 2
    16    5    8 1
    17    6   19 1
    18    6   20 1
    19    6   21 1
    20    8   22 1
    21    9   10 1
    22    9   11 1
@<TRIPOS>SUBSTRUCTURE
     1 PPQ         1 TEMP              0 ****  ****    0 ROOT
