@<TRIPOS>MOLECULE
PPR
   12    10     1     0     0
SMALL
bcc


@<TRIPOS>ATOM
      1 C1          0.2250    0.3690   -0.0440 c2        1 PPR      0.305000
      2 O1          0.6310    1.5560    0.1590 o         1 PPR     -0.640000
      3 O2'         0.7460   -0.6000    0.6070 o         1 PPR     -0.640000
      4 C2         -0.9410    0.0600   -0.9940 c2        1 PPR      0.281000
      5 C3         -0.6700   -0.4910   -2.3010 c2        1 PPR     -0.798000
      6 O2         -2.1030    0.2070   -0.5240 o         1 PPR     -0.519000
      7 P          -0.8470    0.1740   -4.3410 p3        1 PPR      2.563000
      8 O1P        -1.2870    1.6010   -4.4070 o         1 PPR     -1.239667
      9 O2P         0.5490   -0.1000   -4.8170 o         1 PPR     -1.239667
     10 O3P        -1.8620   -0.8260   -4.8210 o         1 PPR     -1.239667
     11 H31        -1.3850   -1.2970   -2.5530 ha        1 PPR      0.083000
     12 H32         0.3850   -0.7840   -2.4330 ha        1 PPR      0.083000
@<TRIPOS>BOND
     1    1    2 1   
     2    1    3 1   
     3    1    4 1   
     4    4    5 1   
     5    4    6 1   
     6    5   11 1   
     7    5   12 1   
     8    7    8 1   
     9    7    9 1   
    10    7   10 1   
@<TRIPOS>SUBSTRUCTURE
     1 PPR         1 TEMP              0 ****  ****    0 ROOT
