@<TRIPOS>MOLECULE
molecule
   12    11     1     0     0
SMALL
bcc


@<TRIPOS>ATOM
      1 C1           0.0000     0.0000     0.0000 c          1 PPR       0.799600
      2 O1           1.2120     0.0000     0.0000 o          1 PPR      -0.890300
      3 O2'         -0.6720     0.0000     1.1660 o          1 PPR      -0.890300
      4 C2          -0.7440    -0.0020    -1.2910 c          1 PPR       0.499100
      5 C3           0.0090    -0.0020    -2.5950 c3         1 PPR      -0.346600
      6 O2          -1.9520    -0.0030    -1.2900 o          1 PPR      -0.514100
      7 P           -1.1760    -0.0040    -3.9810 p5         1 PPR       1.097700
      8 O1P         -2.0270     1.2040    -3.9040 o          1 PPR      -0.940833
      9 O2P         -0.3710    -0.0040    -5.3750 o          1 PPR      -0.940833
     10 O3P         -2.1010    -1.3190    -3.8940 o          1 PPR      -0.940833
     11 H31          0.6300     0.8840    -2.6530 hc         1 PPR       0.034200
     12 H32          0.6330    -0.8850    -2.6520 hc         1 PPR       0.034200
@<TRIPOS>BOND
     1     1     2 1
     2     1     3 1
     3     1     4 1
     4     4     5 1
     5     4     6 2
     6     5     7 1
     7     5    11 1
     8     5    12 1
     9     7     8 1
    10     7     9 1
    11     7    10 1
@<TRIPOS>SUBSTRUCTURE
     1 PPR         1 TEMP              0 ****  ****    0 ROOT
