@<TRIPOS>MOLECULE
PPS
   42    44     1     0     0
SMALL
bcc


@<TRIPOS>ATOM
      1 S2           0.0000     0.0000     0.0000 s6         1 PPS       1.182300
      2 OS1          1.6300     0.0000     0.0000 o          1 PPS      -0.673867
      3 OS2         -0.4360     0.0000     1.3840 o          1 PPS      -0.673867
      4 OS3         -0.4340     1.0420    -0.9120 o          1 PPS      -0.673867
      5 O6P         -0.3550    -1.4490    -0.6660 os         1 PPS      -0.425100
      6 P2          -1.9300    -1.8270    -0.6600 p5         1 PPS       0.904800
      7 O4P         -2.5880    -1.9060     0.6880 o          1 PPS      -0.687000
      8 O5P         -1.9690    -3.2130    -1.4980 o          1 PPS      -0.687000
      9 O5'         -2.5340    -0.7370    -1.6920 os         1 PPS      -0.470200
     10 C5'         -3.8930    -0.8470    -2.0770 c3         1 PPS       0.294400
     11 C4'         -4.2190     0.2780    -3.0410 c3         1 PPS       0.125100
     12 O4'         -3.4120     0.1550    -4.2240 os         1 PPS      -0.381600
     13 C1'         -4.1630     0.6770    -5.3420 c3         1 PPS       0.060800
     14 N9          -4.1640    -0.3050    -6.4280 na         1 PPS       0.294000
     15 C4          -4.1550    -0.0450    -7.7700 ca         1 PPS       0.219800
     16 N3          -4.1450     1.1550    -8.3700 nb         1 PPS      -0.577000
     17 C2          -4.1390     1.0120    -9.7130 ca         1 PPS       0.581900
     18 N1          -4.1430    -0.1270   -10.4460 nb         1 PPS      -0.717000
     19 C6          -4.1530    -1.3030    -9.7730 ca         1 PPS       0.555200
     20 N6          -4.1560    -2.5200   -10.4780 nv         1 PPS      -0.650500
     21 C5          -4.1600    -1.2870    -8.3820 ca         1 PPS      -0.152200
     22 N7          -4.1710    -2.2900    -7.4450 nc         1 PPS      -0.628100
     23 C8          -4.1730    -1.6680    -6.2850 cd         1 PPS       0.348700
     24 C2'         -5.5610     1.0320    -4.8350 c3         1 PPS       0.122100
     25 O2'         -5.6350     2.4370    -4.6050 oh         1 PPS      -0.517800
     26 C3'         -5.6560     0.2570    -3.5340 c3         1 PPS       0.228100
     27 O3'         -6.5470     0.8290    -2.6010 os         1 PPS      -0.401200
     28 P1          -8.0960     0.9880    -3.0260 p5         1 PPS       0.658900
     29 O1P         -8.8200     1.4870    -1.6690 o          1 PPS      -0.763167
     30 O2P         -8.5820    -0.5490    -3.1640 o          1 PPS      -0.763167
     31 O3P         -8.3420     1.8410    -4.2360 o          1 PPS      -0.763167
     32 H5'1        -4.0570    -1.8010    -2.5620 h1         1 PPS      -0.005800
     33 H5'2        -4.5260    -0.7700    -1.2010 h1         1 PPS      -0.005800
     34 H4'         -4.0170     1.2320    -2.5690 h1         1 PPS       0.043700
     35 H1'         -3.6820     1.5830    -5.6880 h2         1 PPS       0.035700
     36 H2          -4.1310     1.9340   -10.2810 h5         1 PPS      -0.040900
     37 HN61        -5.0240    -2.9340   -10.7550 hn         1 PPS       0.260800
     38 HN62        -3.2910    -2.9430   -10.7490 hn         1 PPS       0.260800
     39 H8          -4.0260    -2.5630    -5.6920 h5         1 PPS       0.083800
     40 H2'         -6.3200     0.7050    -5.5350 h1         1 PPS       0.035700
     41 HO2'        -5.8420     2.8780    -5.4130 ho         1 PPS       0.352000
     42 H3'         -5.9490    -0.7650    -3.7430 h1         1 PPS       0.012700
@<TRIPOS>BOND
     1     1     2 1   
     2     1     3 1   
     3     1     4 1   
     4     1     5 1   
     5     5     6 1   
     6     6     7 1   
     7     6     8 1   
     8     6     9 1   
     9     9    10 1   
    10    10    11 1   
    11    10    32 1   
    12    10    33 1   
    13    11    12 1   
    14    11    26 1   
    15    11    34 1   
    16    12    13 1   
    17    13    14 1   
    18    13    24 1   
    19    13    35 1   
    20    14    15 1   
    21    14    23 1   
    22    15    16 ar  
    23    15    21 ar  
    24    16    17 ar  
    25    17    18 ar  
    26    17    36 1   
    27    18    19 ar  
    28    19    20 1   
    29    19    21 ar  
    30    20    37 1   
    31    20    38 1   
    32    21    22 1   
    33    22    23 2   
    34    23    39 1   
    35    24    25 1   
    36    24    26 1   
    37    24    40 1   
    38    25    41 1   
    39    26    27 1   
    40    26    42 1   
    41    27    28 1   
    42    28    29 1   
    43    28    30 1   
    44    28    31 1   
@<TRIPOS>SUBSTRUCTURE
     1 PPS         1 TEMP              0 ****  ****    0 ROOT
