@<TRIPOS>MOLECULE
molecule
   23    23     1     0     0
SMALL
bcc


@<TRIPOS>ATOM
      1 CA           0.0000     0.0000     0.0000 c3         1 PPT      -0.178400
      2 C            1.5070     0.0000     0.0000 c          1 PPT       0.890600
      3 OT1          2.1110     0.0000     1.0450 o          1 PPT      -0.854800
      4 OT2          2.1780     0.0010    -1.1620 o          1 PPT      -0.854800
      5 CB          -0.5090     0.0000     1.4420 c3         1 PPT      -0.029100
      6 CG          -2.0160     0.0000     1.4420 ca         1 PPT      -0.055300
      7 CD1         -2.7070    -1.1970     1.4420 ca         1 PPT      -0.130000
      8 CD2         -2.7070     1.1970     1.4430 ca         1 PPT      -0.130000
      9 CE1         -4.0900    -1.1970     1.4440 ca         1 PPT      -0.132500
     10 CE2         -4.0890     1.1970     1.4410 ca         1 PPT      -0.132500
     11 CZ          -4.7810    -0.0010     1.4460 ca         1 PPT      -0.115300
     12 CH          -6.2880    -0.0010     1.4470 c3         1 PPT      -0.039800
     13 HA1         -0.3610     0.8840    -0.5110 hc         1 PPT       0.032700
     14 HA2         -0.3610    -0.8850    -0.5100 hc         1 PPT       0.032700
     15 HB1         -0.1480     0.8850     1.9530 hc         1 PPT       0.054700
     16 HB2         -0.1480    -0.8840     1.9530 hc         1 PPT       0.054700
     17 HD1         -2.1650    -2.1350     1.4410 ha         1 PPT       0.132000
     18 HD2         -2.1660     2.1350     1.4390 ha         1 PPT       0.132000
     19 HE1         -4.6310    -2.1350     1.4460 ha         1 PPT       0.114000
     20 HE2         -4.6310     2.1350     1.4420 ha         1 PPT       0.114000
     21 HH1         -6.6490     0.7150     0.7180 hc         1 PPT       0.031367
     22 HH2         -6.6490    -0.9900     1.1920 hc         1 PPT       0.031367
     23 HH3         -6.6480     0.2730     2.4310 hc         1 PPT       0.031367
@<TRIPOS>BOND
     1     1     2 1
     2     1     5 1
     3     1    13 1
     4     1    14 1
     5     2     3 1
     6     2     4 1
     7     5     6 1
     8     5    15 1
     9     5    16 1
    10     6     7 ar
    11     6     8 ar
    12     7     9 ar
    13     7    17 1
    14     8    10 ar
    15     8    18 1
    16     9    11 ar
    17     9    19 1
    18    10    11 ar
    19    10    20 1
    20    11    12 1
    21    12    21 1
    22    12    22 1
    23    12    23 1
@<TRIPOS>SUBSTRUCTURE
     1 PPT         1 TEMP              0 ****  ****    0 ROOT
