@<TRIPOS>MOLECULE
PPT
   23    23     1     0     0
SMALL
bcc


@<TRIPOS>ATOM
      1 CA          0.0400    0.1890   -0.0260 c3        1 PPT     -0.191400
      2 C           1.5620    0.4060    0.0660 c         1 PPT      0.907600
      3 OT1         2.0310    0.9510    1.1070 o         1 PPT     -0.849300
      4 OT2         2.2650    0.0430   -0.9200 o         1 PPT     -0.849300
      5 CB         -0.5210   -0.2830    1.2980 c3        1 PPT     -0.041100
      6 CG         -2.0050   -0.2060    1.3580 ca        1 PPT     -0.039300
      7 CD1        -2.7880   -1.3650    1.4030 ca        1 PPT     -0.136500
      8 CD2        -2.6480    1.0410    1.3830 ca        1 PPT     -0.136500
      9 CE1        -4.1770   -1.2840    1.4710 ca        1 PPT     -0.133500
     10 CE2        -4.0350    1.1230    1.4500 ca        1 PPT     -0.133500
     11 CZ         -4.8150   -0.0390    1.4950 ca        1 PPT     -0.114300
     12 CH         -6.2910    0.0510    1.5510 c3        1 PPT     -0.039800
     13 HA1        -0.4270    1.1650   -0.3140 hc        1 PPT      0.024700
     14 HA2        -0.1830   -0.5520   -0.8320 hc        1 PPT      0.024700
     15 HB1        -0.0760    0.3590    2.1110 hc        1 PPT      0.059200
     16 HB2        -0.1820   -1.3360    1.4870 hc        1 PPT      0.059200
     17 HD1        -2.2990   -2.3500    1.3810 ha        1 PPT      0.135000
     18 HD2        -2.0380    1.9560    1.3440 ha        1 PPT      0.135000
     19 HE1        -4.7780   -2.2040    1.5050 ha        1 PPT      0.113500
     20 HE2        -4.5250    2.1070    1.4690 ha        1 PPT      0.113500
     21 HH1        -6.7120    0.1170    0.5150 hc        1 PPT      0.030367
     22 HH2        -6.6160    0.9590    2.1160 hc        1 PPT      0.030367
     23 HH3        -6.7310   -0.8490    2.0470 hc        1 PPT      0.030367
@<TRIPOS>BOND
     1    1    2 1   
     2    1    5 1   
     3    1   13 1   
     4    1   14 1   
     5    2    3 1   
     6    2    4 1   
     7    5    6 1   
     8    5   15 1   
     9    5   16 1   
    10    6    7 ar  
    11    6    8 ar  
    12    7    9 ar  
    13    7   17 1   
    14    8   10 ar  
    15    8   18 1   
    16    9   11 ar  
    17    9   19 1   
    18   10   11 ar  
    19   10   20 1   
    20   11   12 1   
    21   12   21 1   
    22   12   22 1   
    23   12   23 1   
@<TRIPOS>SUBSTRUCTURE
     1 PPT         1 TEMP              0 ****  ****    0 ROOT
