@<TRIPOS>MOLECULE
molecule
    9     8     1     0     0
SMALL
bcc


@<TRIPOS>ATOM
      1 O11          0.3360    -0.9120     2.6280 o          1 PPV      -0.963500
      2 P1           0.0620    -0.0560     1.2920 p5         1 PPV       1.240900
      3 O21         -1.4720     0.4280     1.2700 o          1 PPV      -0.963500
      4 O31          0.9540     1.1240     1.2720 o          1 PPV      -0.963500
      5 OPP          0.3550    -0.9710     0.0000 os         1 PPV      -0.702800
      6 P2           0.0620    -0.0560    -1.2920 p5         1 PPV       1.240900
      7 O12          0.3360    -0.9120    -2.6280 o          1 PPV      -0.963500
      8 O22          0.9540     1.1240    -1.2720 o          1 PPV      -0.963500
      9 O32         -1.4720     0.4280    -1.2700 o          1 PPV      -0.963500
@<TRIPOS>BOND
     1     1     2 1
     2     2     3 1
     3     2     4 1
     4     2     5 1
     5     5     6 1
     6     6     7 1
     7     6     8 1
     8     6     9 1
@<TRIPOS>SUBSTRUCTURE
     1 PPV         1 TEMP              0 ****  ****    0 ROOT
