@<TRIPOS>MOLECULE
PPV
    9     8     1     0     0
SMALL
bcc


@<TRIPOS>ATOM
      1 O11        -0.3660   -1.3480    2.1730 o         1 PPV     -1.021500
      2 P1          0.0310    0.0390    1.6720 p5        1 PPV      1.493900
      3 O21        -0.9680    1.0880    2.1540 o         1 PPV     -1.021500
      4 O31         1.4420    0.3920    2.1350 o         1 PPV     -1.021500
      5 OPP         0.0130    0.0220    0.0000 os        1 PPV     -0.855800
      6 P2         -0.0050    0.0050   -1.6720 p5        1 PPV      1.493900
      7 O12         0.9940   -1.0440   -2.1540 o         1 PPV     -1.021500
      8 O22         0.3920    1.3910   -2.1730 o         1 PPV     -1.021500
      9 O32        -1.4170   -0.3480   -2.1350 o         1 PPV     -1.021500
@<TRIPOS>BOND
     1    1    2 1   
     2    2    3 1   
     3    2    4 1   
     4    2    5 1   
     5    5    6 1   
     6    6    7 1   
     7    6    8 1   
     8    6    9 1   
@<TRIPOS>SUBSTRUCTURE
     1 PPV         1 TEMP              0 ****  ****    0 ROOT
