@<TRIPOS>MOLECULE
molecule
   19    19     1     0     0
SMALL
bcc


@<TRIPOS>ATOM
      1 C1           0.0000     0.0000     0.0000 c          1 PPY       0.807600
      2 O1           1.2130     0.0000     0.0000 o          1 PPY      -0.813300
      3 O2          -0.6720     0.0000     1.1650 o          1 PPY      -0.813300
      4 C2          -0.7450     0.0010    -1.2920 c          1 PPY       0.472100
      5 O3          -1.9530     0.0000    -1.2910 o          1 PPY      -0.535100
      6 C3           0.0080     0.0010    -2.5960 c3         1 PPY      -0.151100
      7 C1'         -0.9710     0.0010    -3.7400 ca         1 PPY      -0.041300
      8 C2'         -1.4210     1.1990    -4.2660 ca         1 PPY      -0.120000
      9 C3'         -2.3180     1.1980    -5.3170 ca         1 PPY      -0.134000
     10 C4'         -2.7670     0.0030    -5.8420 ca         1 PPY      -0.151000
     11 C5'         -2.3170    -1.1950    -5.3180 ca         1 PPY      -0.134000
     12 C6'         -1.4160    -1.1950    -4.2710 ca         1 PPY      -0.120000
     13 H31          0.6310     0.8860    -2.6540 hc         1 PPY       0.069700
     14 H32          0.6310    -0.8830    -2.6540 hc         1 PPY       0.069700
     15 H2'         -1.0690     2.1370    -3.8540 ha         1 PPY       0.129000
     16 H3'         -2.6710     2.1360    -5.7280 ha         1 PPY       0.113000
     17 H4'         -3.4720     0.0030    -6.6650 ha         1 PPY       0.110000
     18 H5'         -2.6670    -2.1330    -5.7320 ha         1 PPY       0.113000
     19 H6'         -1.0630    -2.1330    -3.8600 ha         1 PPY       0.129000
@<TRIPOS>BOND
     1     1     2 1
     2     1     3 1
     3     1     4 1
     4     4     5 2
     5     4     6 1
     6     6     7 1
     7     6    13 1
     8     6    14 1
     9     7     8 ar
    10     7    12 ar
    11     8     9 ar
    12     8    15 1
    13     9    10 ar
    14     9    16 1
    15    10    11 ar
    16    10    17 1
    17    11    12 ar
    18    11    18 1
    19    12    19 1
@<TRIPOS>SUBSTRUCTURE
     1 PPY         1 TEMP              0 ****  ****    0 ROOT
