@<TRIPOS>MOLECULE
PPZ
   28    30     1     0     0
SMALL
bcc


@<TRIPOS>ATOM
      1 C4           0.0000     0.0000     0.0000 ca         1 PPZ       0.185800
      2 C5           1.4060     0.0000     0.0000 ca         1 PPZ      -0.177200
      3 N7           1.8130     0.0000     1.2800 nc         1 PPZ      -0.225400
      4 C8           0.7570    -0.0100     2.0800 cd         1 PPZ      -0.212300
      5 C13          0.6550    -0.0200     3.4880 cd         1 PPZ      -0.048000
      6 C12         -0.5730    -0.0280     4.0690 cc         1 PPZ      -0.107000
      7 C11         -1.7250    -0.0280     3.2630 cc         1 PPZ      -0.114000
      8 C10         -1.6140    -0.0200     1.9200 cd         1 PPZ      -0.234300
      9 N9          -0.3860    -0.0100     1.3200 na         1 PPZ       0.495100
     10 C6           2.0690     0.0160    -1.2430 ca         1 PPZ       0.587200
     11 N6           3.4520     0.0230    -1.3100 nu         1 PPZ      -0.454900
     12 N1           1.3360     0.0190    -2.3500 nb         1 PPZ      -0.739000
     13 C2           0.0160     0.0140    -2.2980 ca         1 PPZ       0.673900
     14 N3          -0.6460     0.0040    -1.1620 nb         1 PPZ      -0.661000
     15 C61          4.1230     0.0340    -2.6110 c3         1 PPZ       0.150800
     16 C7           5.6380     0.0390    -2.4030 c3         1 PPZ       0.211400
     17 O8           6.0240    -1.1280    -1.6770 oh         1 PPZ      -0.593800
     18 H13          1.5490    -0.0200     4.1000 ha         1 PPZ       0.125000
     19 H12         -0.6640    -0.0350     5.1480 ha         1 PPZ       0.114000
     20 H11         -2.7060    -0.0350     3.7230 ha         1 PPZ       0.119000
     21 H10         -2.5090    -0.0200     1.3090 h4         1 PPZ       0.147000
     22 H6           3.9920     0.0330    -0.4680 hn         1 PPZ       0.316800
     23 H2          -0.5420     0.0170    -3.2270 h5         1 PPZ      -0.004900
     24 H61          3.8380    -0.8480    -3.1710 h1         1 PPZ       0.032200
     25 H62          3.8310     0.9210    -3.1600 h1         1 PPZ       0.032200
     26 H71          6.1350     0.0460    -3.3660 h1         1 PPZ      -0.007300
     27 H72          5.9230     0.9220    -1.8440 h1         1 PPZ      -0.007300
     28 H8           6.9580    -1.2440    -1.7400 ho         1 PPZ       0.396000
@<TRIPOS>BOND
     1     1     2 ar  
     2     1     9 1   
     3     1    14 ar  
     4     2     3 1   
     5     2    10 ar  
     6     3     4 2   
     7     4     5 1   
     8     4     9 1   
     9     5     6 2   
    10     5    18 1   
    11     6     7 1   
    12     6    19 1   
    13     7     8 2   
    14     7    20 1   
    15     8     9 1   
    16     8    21 1   
    17    10    11 1   
    18    10    12 ar  
    19    11    15 1   
    20    11    22 1   
    21    12    13 ar  
    22    13    14 ar  
    23    13    23 1   
    24    15    16 1   
    25    15    24 1   
    26    15    25 1   
    27    16    17 1   
    28    16    26 1   
    29    16    27 1   
    30    17    28 1   
@<TRIPOS>SUBSTRUCTURE
     1 PPZ         1 TEMP              0 ****  ****    0 ROOT
