@<TRIPOS>MOLECULE
PQ0
   18    19     1     0     0
SMALL
bcc


@<TRIPOS>ATOM
      1 N1          0.0140    0.0150   -0.0280 n         1 PQ0     -0.508400
      2 C2          1.4230    0.0190    0.0040 cc        1 PQ0      0.686800
      3 N3          2.1610   -0.0480    1.1380 nd        1 PQ0     -0.684100
      4 C4          1.4200   -0.0540    2.3100 cd        1 PQ0      0.200100
      5 C5         -0.0130   -0.0360    2.3820 cc        1 PQ0     -0.247600
      6 C6         -0.7740    0.0070    1.1560 c         1 PQ0      0.750100
      7 O6         -2.0060    0.0300    1.0170 o         1 PQ0     -0.605500
      8 C7         -0.3620   -0.0580    3.7740 cc        1 PQ0     -0.011000
      9 C10        -1.6510   -0.0510    4.3310 cg        1 PQ0      0.264800
     10 N11        -2.7180   -0.0460    4.7960 n1        1 PQ0     -0.358800
     11 C8          0.8410   -0.0900    4.4980 cd        1 PQ0     -0.110300
     12 N9          1.9190   -0.0870    3.6130 na        1 PQ0     -0.165100
     13 N2          2.0980    0.1590   -1.2280 nh        1 PQ0     -0.893800
     14 HN1        -0.4690    0.1070   -0.8950 hn        1 PQ0      0.336500
     15 H8          1.0010   -0.1150    5.5780 h4        1 PQ0      0.184000
     16 HN9         2.8750   -0.1040    3.8600 hn        1 PQ0      0.316700
     17 HN21        3.0880    0.0440   -1.1790 hn        1 PQ0      0.422300
     18 HN22        1.6720   -0.2890   -2.0080 hn        1 PQ0      0.422300
@<TRIPOS>BOND
     1    1    2 1   
     2    1    6 1   
     3    1   14 1   
     4    2    3 2   
     5    2   13 1   
     6    3    4 1   
     7    4    5 2   
     8    4   12 1   
     9    5    6 1   
    10    5    8 1   
    11    6    7 2   
    12    8    9 1   
    13    8   11 2   
    14    9   10 3   
    15   11   12 1   
    16   11   15 1   
    17   12   16 1   
    18   13   17 1   
    19   13   18 1   
@<TRIPOS>SUBSTRUCTURE
     1 PQ0         1 TEMP              0 ****  ****    0 ROOT
