@<TRIPOS>MOLECULE
molecule
   68    74     1     0     0
SMALL
bcc


@<TRIPOS>ATOM
      1 C4           0.0000     0.0000     0.0000 ca         1 PQ3      -0.189300
      2 C5           1.3940     0.0000     0.0000 ca         1 PQ3       0.369300
      3 C3          -0.6780    -0.0480     1.2060 ca         1 PQ3      -0.089000
      4 C2           0.0530    -0.0380     2.3910 ca         1 PQ3      -0.129300
      5 C17          1.4630     0.0190     2.3580 ca         1 PQ3       0.370800
      6 C17'         2.1700     0.0880     3.5860 ca         1 PQ3       0.370800
      7 C2'          1.4390     0.0630     4.7930 ca         1 PQ3      -0.129300
      8 C1          -0.6420    -0.0840     3.5940 ca         1 PQ3      -0.111500
      9 C13          8.9980     0.2530    -3.8000 ca         1 PQ3      -0.131000
     10 C5'          4.1850     0.1910     4.8180 ca         1 PQ3       0.369300
     11 C6           2.1220    -0.0340    -1.3230 c          1 PQ3       0.583600
     12 C1'          0.0490    -0.0330     4.7940 ca         1 PQ3      -0.111500
     13 C3'          2.1020     0.1050     6.0170 ca         1 PQ3      -0.089000
     14 C4'          3.4870     0.1710     6.0270 ca         1 PQ3      -0.189300
     15 C6'          5.6960     0.2080     4.8490 c          1 PQ3       0.583600
     16 C12          8.6270    -0.2090    -5.0590 ca         1 PQ3      -0.119500
     17 C7'          7.7350     0.1920     3.3670 ca         1 PQ3       0.050600
     18 C16'         8.1700    -0.1460     2.0890 ca         1 PQ3      -0.237000
     19 C15'         9.5330    -0.1100     1.7960 ca         1 PQ3       0.010500
     20 C10'        10.4610     0.2010     2.8030 ca         1 PQ3       0.036200
     21 C8'          8.6980     0.5230     4.3280 ca         1 PQ3      -0.123800
     22 C14'         9.9790    -0.3850     0.5010 ca         1 PQ3      -0.158000
     23 C11          7.2900    -0.4760    -5.3390 ca         1 PQ3      -0.194500
     24 C11'        11.8220     0.2850     2.4820 ca         1 PQ3      -0.194500
     25 C13'        11.3370    -0.3160     0.1960 ca         1 PQ3      -0.131000
     26 C12'        12.2570     0.0280     1.1840 ca         1 PQ3      -0.119500
     27 C14          8.0320     0.4250    -2.8090 ca         1 PQ3      -0.158000
     28 C7           4.4320    -0.1480    -2.3080 ca         1 PQ3       0.050600
     29 C8           4.0980    -0.5940    -3.5890 ca         1 PQ3      -0.123800
     30 C16          5.7450     0.2300    -2.0560 ca         1 PQ3      -0.237000
     31 C15          6.6950     0.1180    -3.0710 ca         1 PQ3       0.010500
     32 C10          6.3090    -0.3160    -4.3500 ca         1 PQ3       0.036200
     33 N1           2.1170     0.0000     1.1570 nb         1 PQ3      -0.638000
     34 N2           3.4690    -0.0930    -1.2440 ns         1 PQ3      -0.453100
     35 N3'         10.0340     0.3660     4.0960 na         1 PQ3      -0.080600
     36 N2'          6.3240     0.2020     3.6500 ns         1 PQ3      -0.453100
     37 N1'          3.5380     0.1560     3.6200 nb         1 PQ3      -0.638000
     38 N3           4.9850    -0.5550    -4.6240 na         1 PQ3      -0.080600
     39 O1'          6.3210     0.2200     5.8920 o          1 PQ3      -0.601100
     40 O1           1.5500    -0.0360    -2.3950 o          1 PQ3      -0.601100
     41 HH          -0.5420     0.1920    -0.9180 ha         1 PQ3       0.167000
     42 HJ          -1.7610    -0.0490     1.2280 ha         1 PQ3       0.149000
     43 HK          -1.7170    -0.2200     3.5940 ha         1 PQ3       0.142500
     44 HI1          3.3900    -0.6200    -5.9850 h1         1 PQ3       0.052367
     45 HI2          4.8370     0.2120    -6.5710 h1         1 PQ3       0.052367
     46 HI3          4.8160    -1.5530    -6.4610 h1         1 PQ3       0.052367
     47 HE          10.0390     0.4600    -3.5830 ha         1 PQ3       0.128500
     48 HK'         -0.4920    -0.0520     5.7320 ha         1 PQ3       0.142500
     49 HJ'          1.5450     0.0890     6.9460 ha         1 PQ3       0.149000
     50 HH'          4.0160     0.3290     6.9600 ha         1 PQ3       0.167000
     51 HF           9.3780    -0.3430    -5.8280 ha         1 PQ3       0.128500
     52 HB'          7.4530    -0.4080     1.3200 ha         1 PQ3       0.138500
     53 HC'          8.3690     0.7900     5.3250 h4         1 PQ3       0.180500
     54 HD'          9.2650    -0.6530    -0.2690 ha         1 PQ3       0.138500
     55 HG           7.0080    -0.8350    -6.3210 ha         1 PQ3       0.127000
     56 HG'         12.5410     0.5520     3.2470 ha         1 PQ3       0.127000
     57 HE'         11.6750    -0.5160    -0.8140 ha         1 PQ3       0.128500
     58 HF'         13.3120     0.0810     0.9460 ha         1 PQ3       0.128500
     59 HD           8.3220     0.7850    -1.8300 ha         1 PQ3       0.138500
     60 HC           3.0750    -0.8910    -3.7890 h4         1 PQ3       0.180500
     61 HB           6.0350     0.5790    -1.0720 ha         1 PQ3       0.138500
     62 HI2'        10.3570     0.1340     6.1550 h1         1 PQ3       0.052367
     63 HI3'        11.4870    -0.7480     5.1180 h1         1 PQ3       0.052367
     64 HI1'        11.6320     1.0060     5.2920 h1         1 PQ3       0.052367
     65 HA           3.8480    -0.0990    -0.3170 hn         1 PQ3       0.340500
     66 HA'          5.7230     0.2010     2.8490 hn         1 PQ3       0.340500
     67 C9'         10.9370     0.1770     5.2400 c3         1 PQ3       0.037600
     68 C9           4.4730    -0.6340    -6.0010 c3         1 PQ3       0.037600
@<TRIPOS>BOND
     1     1     3 ar
     2     1     2 ar
     3     3     4 ar
     4    40    11 2
     5    68    38 1
     6    11     2 1
     7    11    34 1
     8     2    33 ar
     9     4     8 ar
    10     4     5 ar
    11     8    12 ar
    12    29    38 1
    13    29    28 ar
    14    38    32 2
    15    34    28 1
    16    33     5 ar
    17     5     6 ar
    18    12     7 ar
    19    28    30 ar
    20    32    23 ar
    21    32    31 ar
    22    23    16 ar
    23     7     6 ar
    24     7    13 ar
    25     6    37 ar
    26    30    31 ar
    27    31    27 ar
    28    13    14 ar
    29    37    10 ar
    30    16     9 ar
    31    27     9 ar
    32    10    14 ar
    33    10    15 1
    34    36    15 1
    35    36    17 1
    36    15    39 2
    37    18    17 ar
    38    18    19 ar
    39    17    21 ar
    40    22    19 ar
    41    22    25 ar
    42    19    20 ar
    43    21    35 1
    44    25    26 ar
    45    20    35 2
    46    20    24 ar
    47    35    67 1
    48    26    24 ar
    49     1    41 1
    50     3    42 1
    51     8    43 1
    52    68    44 1
    53    68    45 1
    54    68    46 1
    55     9    47 1
    56    12    48 1
    57    13    49 1
    58    14    50 1
    59    16    51 1
    60    18    52 1
    61    21    53 1
    62    22    54 1
    63    23    55 1
    64    24    56 1
    65    25    57 1
    66    26    58 1
    67    27    59 1
    68    29    60 1
    69    30    61 1
    70    67    62 1
    71    67    63 1
    72    67    64 1
    73    34    65 1
    74    36    66 1
@<TRIPOS>SUBSTRUCTURE
     1 PQ3         1 TEMP              0 ****  ****    0 ROOT
