@<TRIPOS>MOLECULE
PQ7
   80    84     1     0     0
SMALL
bcc


@<TRIPOS>ATOM
      1 CAA          0.0000     0.0000     0.0000 c3         1 PQ7      -0.033400
      2 NAB          1.4650     0.0000     0.0000 na         1 PQ7       0.571900
      3 CAC          2.1060     0.0000     1.1530 ca         1 PQ7      -0.187300
      4 CAD          3.4850     0.0000     1.1960 ca         1 PQ7      -0.158000
      5 CAE          4.1990    -0.0010    -0.0020 ca         1 PQ7       0.105600
      6 CAF          3.4830    -0.0020    -1.1990 ca         1 PQ7      -0.158000
      7 CAG          2.1050    -0.0070    -1.1550 ca         1 PQ7      -0.187300
      8 NAH          5.5910    -0.0000    -0.0030 nh         1 PQ7      -0.269000
      9 NAI         -8.8870    12.3400    -0.0040 na         1 PQ7       0.608900
     10 CAJ         -9.5270    12.3400     1.1500 ca         1 PQ7      -0.208800
     11 CAK        -10.9060    12.3460     1.1930 ca         1 PQ7      -0.120500
     12 CAL        -11.6220    12.3510    -0.0040 ca         1 PQ7       0.095600
     13 CAM        -10.9050    12.3510    -1.2010 ca         1 PQ7      -0.120500
     14 CAN         -9.5270    12.3450    -1.1580 ca         1 PQ7      -0.208800
     15 NAO        -13.0130    12.3560    -0.0050 nh         1 PQ7      -0.293000
     16 CAP        -13.5400    13.1630    -1.1260 c3         1 PQ7       0.123300
     17 CAQ        -14.8370    13.8300    -0.6330 c3         1 PQ7      -0.023400
     18 CAR          6.3240     0.0010     1.2660 c3         1 PQ7       0.181100
     19 CAS          6.3230    -0.0020    -1.2720 c3         1 PQ7       0.181100
     20 CAT        -13.5430    12.9870     1.2310 c3         1 PQ7       0.123300
     21 CAU        -14.9900    13.3780     0.8380 c3         1 PQ7      -0.023400
     22 CAW         -6.9190    10.9190    -0.0030 ca         1 PQ7      -0.185300
     23 CAX         -6.6890    10.2670    -1.2000 ca         1 PQ7      -0.069500
     24 CAY         -6.2290     8.9640    -1.2000 ca         1 PQ7      -0.084000
     25 CAZ         -5.9980     8.3120    -0.0020 ca         1 PQ7      -0.048300
     26 CBA         -6.2290     8.9650     1.1950 ca         1 PQ7      -0.084000
     27 CBB         -6.6840    10.2700     1.1950 ca         1 PQ7      -0.069500
     28 CBC         -5.4960     6.8920    -0.0020 c3         1 PQ7       0.021900
     29 CBD         -3.9670     6.8910    -0.0020 c3         1 PQ7      -0.024400
     30 CBE         -3.4560     5.4480    -0.0020 c3         1 PQ7      -0.024400
     31 CBG         -1.4230     4.0270    -0.0010 ca         1 PQ7      -0.052300
     32 CBH         -1.1940     3.3750    -1.1980 ca         1 PQ7      -0.084000
     33 CBI         -0.7340     2.0710    -1.1970 ca         1 PQ7      -0.071000
     34 CBJ         -0.5030     1.4210    -0.0010 ca         1 PQ7      -0.180300
     35 CBK         -0.7330     2.0730     1.1970 ca         1 PQ7      -0.071000
     36 CBL         -1.1880     3.3780     1.1960 ca         1 PQ7      -0.084000
     37 HAA         -0.3610    -0.5100     0.8850 h1         1 PQ7       0.063700
     38 HAAA        -0.3610    -0.5110    -0.8840 h1         1 PQ7       0.063700
     39 HAC          1.5420     0.0010     2.0790 h4         1 PQ7       0.162000
     40 HAD          4.0050     0.0010     2.1460 ha         1 PQ7       0.157000
     41 HAF          4.0030    -0.0060    -2.1500 ha         1 PQ7       0.157000
     42 HAG          1.5400    -0.0080    -2.0800 h4         1 PQ7       0.162000
     43 HAJ         -8.9630    12.3360     2.0750 h4         1 PQ7       0.166000
     44 HAK        -11.4260    12.3460     2.1440 ha         1 PQ7       0.161500
     45 HAM        -11.4250    12.3550    -2.1510 ha         1 PQ7       0.161500
     46 HAN         -8.9630    12.3450    -2.0830 h4         1 PQ7       0.166000
     47 HAP        -12.8190    13.9220    -1.4050 h1         1 PQ7       0.032450
     48 HAPA       -13.7550    12.5210    -1.9720 h1         1 PQ7       0.032450
     49 HAQ        -14.7470    14.9080    -0.6860 hc         1 PQ7       0.039950
     50 HAQA       -15.6810    13.4880    -1.2200 hc         1 PQ7       0.039950
     51 HAR          6.0620    -0.8830     1.8350 h1         1 PQ7       0.031033
     52 HARA         7.3890     0.0010     1.0680 h1         1 PQ7       0.031033
     53 HARB         6.0620     0.8860     1.8330 h1         1 PQ7       0.031033
     54 HAS          6.0600     0.8810    -1.8410 h1         1 PQ7       0.031033
     55 HASA         6.0610    -0.8880    -1.8380 h1         1 PQ7       0.031033
     56 HASB         7.3880    -0.0010    -1.0740 h1         1 PQ7       0.031033
     57 HAT        -13.5500    12.2760     2.0490 h1         1 PQ7       0.032450
     58 HATA       -12.9670    13.8680     1.4860 h1         1 PQ7       0.032450
     59 HAU        -15.3450    14.1950     1.4540 hc         1 PQ7       0.039950
     60 HAUA       -15.6490    12.5210     0.9070 hc         1 PQ7       0.039950
     61 HAV         -7.0610    12.8500    -0.8880 h1         1 PQ7       0.065700
     62 HAVA        -7.0610    12.8510     0.8810 h1         1 PQ7       0.065700
     63 HAX         -6.8700    10.7770    -2.1380 ha         1 PQ7       0.106000
     64 HAY         -6.0490     8.4530    -2.1380 ha         1 PQ7       0.122000
     65 HBA         -6.0460     8.4550     2.1340 ha         1 PQ7       0.122000
     66 HBB         -6.8640    10.7810     2.1330 ha         1 PQ7       0.106000
     67 HBC         -5.8570     6.3800    -0.8860 hc         1 PQ7       0.027700
     68 HBCA        -5.8570     6.3810     0.8830 hc         1 PQ7       0.027700
     69 HBD         -3.6060     7.4020    -0.8870 hc         1 PQ7       0.020700
     70 HBDA        -3.6050     7.4020     0.8820 hc         1 PQ7       0.020700
     71 HBE         -3.8160     4.9380     0.8830 hc         1 PQ7       0.020700
     72 HBEA        -3.8170     4.9370    -0.8860 hc         1 PQ7       0.020700
     73 HBF         -1.5650     5.9590    -0.8870 hc         1 PQ7       0.026700
     74 HBFA        -1.5650     5.9600     0.8820 hc         1 PQ7       0.026700
     75 HBH         -1.3740     3.8850    -2.1360 ha         1 PQ7       0.121000
     76 HBI         -0.5540     1.5600    -2.1350 ha         1 PQ7       0.106000
     77 HBK         -0.5480     1.5640     2.1350 ha         1 PQ7       0.106000
     78 HBL         -1.3680     3.8890     2.1340 ha         1 PQ7       0.121000
     79 CBF         -1.9260     5.4490    -0.0020 c3         1 PQ7       0.022900
     80 CAV         -7.4220    12.3400    -0.0040 c3         1 PQ7      -0.040400
@<TRIPOS>BOND
     1     1     2 1   
     2     1    34 1   
     3     1    37 1   
     4     1    38 1   
     5     2     3 1   
     6     2     7 2   
     7     3     4 ar  
     8     3    39 1   
     9     4     5 ar  
    10     4    40 1   
    11     5     6 ar  
    12     5     8 1   
    13     6     7 ar  
    14     6    41 1   
    15     7    42 1   
    16     8    18 1   
    17     8    19 1   
    18     9    10 1   
    19     9    14 2   
    20     9    80 1   
    21    10    11 ar  
    22    10    43 1   
    23    11    12 ar  
    24    11    44 1   
    25    12    13 ar  
    26    12    15 1   
    27    13    14 ar  
    28    13    45 1   
    29    14    46 1   
    30    15    16 1   
    31    15    20 1   
    32    16    17 1   
    33    16    47 1   
    34    16    48 1   
    35    17    21 1   
    36    17    49 1   
    37    17    50 1   
    38    18    51 1   
    39    18    52 1   
    40    18    53 1   
    41    19    54 1   
    42    19    55 1   
    43    19    56 1   
    44    20    21 1   
    45    20    57 1   
    46    20    58 1   
    47    21    59 1   
    48    21    60 1   
    49    22    23 ar  
    50    22    27 ar  
    51    22    80 1   
    52    23    24 ar  
    53    23    63 1   
    54    24    25 ar  
    55    24    64 1   
    56    25    26 ar  
    57    25    28 1   
    58    26    27 ar  
    59    26    65 1   
    60    27    66 1   
    61    28    29 1   
    62    28    67 1   
    63    28    68 1   
    64    29    30 1   
    65    29    69 1   
    66    29    70 1   
    67    30    71 1   
    68    30    72 1   
    69    30    79 1   
    70    31    32 ar  
    71    31    36 ar  
    72    31    79 1   
    73    32    33 ar  
    74    32    75 1   
    75    33    34 ar  
    76    33    76 1   
    77    34    35 ar  
    78    35    36 ar  
    79    35    77 1   
    80    36    78 1   
    81    61    80 1   
    82    62    80 1   
    83    73    79 1   
    84    74    79 1   
@<TRIPOS>SUBSTRUCTURE
     1 PQ7         1 TEMP              0 ****  ****    0 ROOT
