@<TRIPOS>MOLECULE
PQ9
  109   109     1     0     0
SMALL
bcc


@<TRIPOS>ATOM
      1 C1          1.5570    1.4580    0.5110 c         1 PQ9      0.554500
      2 O1          0.4800    1.4250    1.1190 o         1 PQ9     -0.504100
      3 C2          1.7820    0.6500   -0.7170 cc        1 PQ9     -0.116400
      4 C3          2.9640    0.6800   -1.3520 cd        1 PQ9     -0.198200
      5 C4          4.1010    1.4940   -0.8860 c         1 PQ9      0.551500
      6 O4          5.1850    1.4800   -1.4830 o         1 PQ9     -0.503100
      7 C5          3.8730    2.3210    0.3240 cc        1 PQ9     -0.134400
      8 C6          4.9990    3.1640    0.7870 c3        1 PQ9     -0.068900
      9 C9          2.4540    3.1290    2.1800 c3        1 PQ9     -0.068900
     10 C10         2.6860    2.3040    0.9720 cd        1 PQ9     -0.140400
     11 C11         0.6230   -0.1510   -1.2000 c3        1 PQ9     -0.020000
     12 C12         1.0020   -1.4280   -1.8480 c2        1 PQ9     -0.184200
     13 C13         0.2000   -2.0980   -2.6910 c2        1 PQ9     -0.108400
     14 C14        -1.1420   -1.5990   -3.0780 c3        1 PQ9     -0.064900
     15 C15         0.6300   -3.3870   -3.3050 c3        1 PQ9     -0.042200
     16 C16        -0.0530   -4.5740   -2.6490 c3        1 PQ9     -0.043200
     17 C17         0.3460   -5.8560   -3.2740 c2        1 PQ9     -0.176200
     18 C18         0.0130   -7.0580   -2.7740 c2        1 PQ9     -0.120400
     19 C19        -0.7840   -7.2010   -1.5320 c3        1 PQ9     -0.059900
     20 C20         0.4240   -8.3210   -3.4510 c3        1 PQ9     -0.039200
     21 C21         1.4500   -9.0850   -2.6330 c3        1 PQ9     -0.043200
     22 C22         1.8200  -10.3710   -3.2690 c2        1 PQ9     -0.174200
     23 C23         2.8210  -11.1510   -2.8320 c2        1 PQ9     -0.123400
     24 C24         3.6580  -10.7800   -1.6650 c3        1 PQ9     -0.059900
     25 C25         3.1430  -12.4470   -3.4950 c3        1 PQ9     -0.039200
     26 C26         4.4830  -12.3940   -4.2060 c3        1 PQ9     -0.044200
     27 C27         4.8380  -13.6960   -4.8170 c2        1 PQ9     -0.174200
     28 C28         5.8930  -13.8680   -5.6300 c2        1 PQ9     -0.123400
     29 C29         6.7970  -12.7510   -5.9960 c3        1 PQ9     -0.058900
     30 C30         6.2210  -15.2040   -6.2040 c3        1 PQ9     -0.038200
     31 C31         5.9950  -15.2390   -7.7050 c3        1 PQ9     -0.044200
     32 C32         6.3720  -16.5450   -8.2930 c2        1 PQ9     -0.174200
     33 C33         6.1200  -16.8820   -9.5690 c2        1 PQ9     -0.124400
     34 C34         5.4260  -15.9650  -10.5040 c3        1 PQ9     -0.058900
     35 C35         6.5370  -18.2040  -10.1180 c3        1 PQ9     -0.038200
     36 C36         5.3390  -19.0850  -10.4250 c3        1 PQ9     -0.043200
     37 C37         5.7410  -20.3800  -11.0210 c2        1 PQ9     -0.174200
     38 C38         4.8850  -21.3920  -11.2380 c2        1 PQ9     -0.123400
     39 C39         3.4480  -21.2980  -10.8850 c3        1 PQ9     -0.058900
     40 C40         5.3350  -22.6710  -11.8570 c3        1 PQ9     -0.038200
     41 C41         5.2870  -23.8200  -10.8670 c3        1 PQ9     -0.043200
     42 C42         5.6810  -25.1060  -11.4880 c2        1 PQ9     -0.177200
     43 C43         5.8390  -26.2440  -10.7930 c2        1 PQ9     -0.124400
     44 C44         5.6400  -26.3080   -9.3250 c3        1 PQ9     -0.057900
     45 C45         6.2300  -27.5140  -11.4510 c3        1 PQ9     -0.057900
     46 H3          3.1460    0.0910   -2.2680 ha        1 PQ9      0.163000
     47 H61         5.2830    2.8850    1.8340 hc        1 PQ9      0.060367
     48 H62         4.6980    4.2420    0.7870 hc        1 PQ9      0.060367
     49 H63         5.8940    3.0410    0.1280 hc        1 PQ9      0.060367
     50 H91         3.1890    2.8540    2.9800 hc        1 PQ9      0.059700
     51 H92         2.5970    4.2130    1.9380 hc        1 PQ9      0.059700
     52 H93         1.4200    2.9850    2.5800 hc        1 PQ9      0.059700
     53 H111       -0.0650   -0.3730   -0.3330 hc        1 PQ9      0.078200
     54 H112        0.0350    0.4910   -1.9170 hc        1 PQ9      0.078200
     55 H12         1.9930   -1.8300   -1.5800 ha        1 PQ9      0.128000
     56 H141       -1.0410   -0.7230   -3.7680 hc        1 PQ9      0.044367
     57 H142       -1.7330   -2.3900   -3.6010 hc        1 PQ9      0.044367
     58 H143       -1.7160   -1.2670   -2.1770 hc        1 PQ9      0.044367
     59 H151        1.7430   -3.5080   -3.2180 hc        1 PQ9      0.048700
     60 H152        0.3820   -3.3720   -4.4010 hc        1 PQ9      0.048700
     61 H161        0.1980   -4.5920   -1.5530 hc        1 PQ9      0.051200
     62 H162       -1.1690   -4.4550   -2.7230 hc        1 PQ9      0.051200
     63 H17         0.9420   -5.7800   -4.1980 ha        1 PQ9      0.123000
     64 H191       -1.6890   -6.5430   -1.5700 hc        1 PQ9      0.042033
     65 H192       -1.1200   -8.2560   -1.3830 hc        1 PQ9      0.042033
     66 H193       -0.1730   -6.8960   -0.6450 hc        1 PQ9      0.042033
     67 H201        0.8510   -8.1010   -4.4660 hc        1 PQ9      0.046700
     68 H202       -0.4850   -8.9640   -3.6060 hc        1 PQ9      0.046700
     69 H211        1.0370   -9.2820   -1.6050 hc        1 PQ9      0.050200
     70 H212        2.3680   -8.4510   -2.4960 hc        1 PQ9      0.050200
     71 H22         1.2160  -10.6710   -4.1410 ha        1 PQ9      0.123000
     72 H241        4.2990  -11.6330   -1.3350 hc        1 PQ9      0.041367
     73 H242        3.0130  -10.4670   -0.8050 hc        1 PQ9      0.041367
     74 H243        4.3240   -9.9190   -1.9280 hc        1 PQ9      0.041367
     75 H251        2.3430  -12.7170   -4.2350 hc        1 PQ9      0.046200
     76 H252        3.1630  -13.2590   -2.7180 hc        1 PQ9      0.046200
     77 H261        5.2830  -12.0940   -3.4740 hc        1 PQ9      0.050200
     78 H262        4.4560  -11.5980   -4.9990 hc        1 PQ9      0.050200
     79 H27         4.1820  -14.5450   -4.5640 ha        1 PQ9      0.122000
     80 H291        6.2680  -12.0360   -6.6760 hc        1 PQ9      0.041367
     81 H292        7.1120  -12.1870   -5.0820 hc        1 PQ9      0.041367
     82 H293        7.7130  -13.1210   -6.5170 hc        1 PQ9      0.041367
     83 H301        5.5980  -16.0030   -5.7200 hc        1 PQ9      0.046200
     84 H302        7.2970  -15.4430   -5.9830 hc        1 PQ9      0.046200
     85 H311        4.9150  -15.0200   -7.9270 hc        1 PQ9      0.050200
     86 H312        6.5970  -14.4220   -8.1930 hc        1 PQ9      0.050200
     87 H32         6.8880  -17.2480   -7.6200 ha        1 PQ9      0.123000
     88 H341        5.8830  -14.9440  -10.4630 hc        1 PQ9      0.041367
     89 H342        5.4820  -16.3370  -11.5560 hc        1 PQ9      0.041367
     90 H343        4.3470  -15.8710  -10.2200 hc        1 PQ9      0.041367
     91 H351        7.2100  -18.7350   -9.3940 hc        1 PQ9      0.045700
     92 H352        7.1280  -18.0370  -11.0590 hc        1 PQ9      0.045700
     93 H361        4.7560  -19.2670   -9.4810 hc        1 PQ9      0.050200
     94 H362        4.6490  -18.5460  -11.1320 hc        1 PQ9      0.050200
     95 H37         6.8050  -20.4790  -11.2910 ha        1 PQ9      0.123000
     96 H391        3.0120  -20.3410  -11.2690 hc        1 PQ9      0.041367
     97 H392        3.3230  -21.3110   -9.7720 hc        1 PQ9      0.041367
     98 H393        2.8660  -22.1500  -11.3140 hc        1 PQ9      0.041367
     99 H401        4.6730  -22.9050  -12.7340 hc        1 PQ9      0.045700
    100 H402        6.3820  -22.5680  -12.2510 hc        1 PQ9      0.045700
    101 H411        5.9660  -23.5960   -9.9980 hc        1 PQ9      0.049700
    102 H412        4.2470  -23.9100  -10.4470 hc        1 PQ9      0.049700
    103 H42         5.8400  -25.0900  -12.5780 ha        1 PQ9      0.122000
    104 H441        6.4330  -25.7140   -8.8030 hc        1 PQ9      0.040533
    105 H442        4.6470  -25.8750   -9.0460 hc        1 PQ9      0.040533
    106 H443        5.6860  -27.3600   -8.9540 hc        1 PQ9      0.040533
    107 H451        6.3940  -27.3780  -12.5480 hc        1 PQ9      0.040533
    108 H452        5.4300  -28.2820  -11.3060 hc        1 PQ9      0.040533
    109 H453        7.1750  -27.9060  -10.9990 hc        1 PQ9      0.040533
@<TRIPOS>BOND
     1    1    2 2   
     2    1    3 1   
     3    1   10 1   
     4    3    4 2   
     5    3   11 1   
     6    4    5 1   
     7    4   46 1   
     8    5    6 2   
     9    5    7 1   
    10    7    8 1   
    11    7   10 2   
    12    8   47 1   
    13    8   48 1   
    14    8   49 1   
    15    9   10 1   
    16    9   50 1   
    17    9   51 1   
    18    9   52 1   
    19   11   12 1   
    20   11   53 1   
    21   11   54 1   
    22   12   13 2   
    23   12   55 1   
    24   13   14 1   
    25   13   15 1   
    26   14   56 1   
    27   14   57 1   
    28   14   58 1   
    29   15   16 1   
    30   15   59 1   
    31   15   60 1   
    32   16   17 1   
    33   16   61 1   
    34   16   62 1   
    35   17   18 2   
    36   17   63 1   
    37   18   19 1   
    38   18   20 1   
    39   19   64 1   
    40   19   65 1   
    41   19   66 1   
    42   20   21 1   
    43   20   67 1   
    44   20   68 1   
    45   21   22 1   
    46   21   69 1   
    47   21   70 1   
    48   22   23 2   
    49   22   71 1   
    50   23   24 1   
    51   23   25 1   
    52   24   72 1   
    53   24   73 1   
    54   24   74 1   
    55   25   26 1   
    56   25   75 1   
    57   25   76 1   
    58   26   27 1   
    59   26   77 1   
    60   26   78 1   
    61   27   28 2   
    62   27   79 1   
    63   28   29 1   
    64   28   30 1   
    65   29   80 1   
    66   29   81 1   
    67   29   82 1   
    68   30   31 1   
    69   30   83 1   
    70   30   84 1   
    71   31   32 1   
    72   31   85 1   
    73   31   86 1   
    74   32   33 2   
    75   32   87 1   
    76   33   34 1   
    77   33   35 1   
    78   34   88 1   
    79   34   89 1   
    80   34   90 1   
    81   35   36 1   
    82   35   91 1   
    83   35   92 1   
    84   36   37 1   
    85   36   93 1   
    86   36   94 1   
    87   37   38 2   
    88   37   95 1   
    89   38   39 1   
    90   38   40 1   
    91   39   96 1   
    92   39   97 1   
    93   39   98 1   
    94   40   41 1   
    95   40   99 1   
    96   40  100 1   
    97   41   42 1   
    98   41  101 1   
    99   41  102 1   
   100   42   43 2   
   101   42  103 1   
   102   43   44 1   
   103   43   45 1   
   104   44  104 1   
   105   44  105 1   
   106   44  106 1   
   107   45  107 1   
   108   45  108 1   
   109   45  109 1   
@<TRIPOS>SUBSTRUCTURE
     1 PQ9         1 TEMP              0 ****  ****    0 ROOT
