@<TRIPOS>MOLECULE
molecule
  109   109     1     0     0
SMALL
bcc


@<TRIPOS>ATOM
      1 C1           0.0000     0.0000     0.0000 c          1 PQ9       0.566500
      2 O1          -0.6070    -0.0000    -1.0510 o          1 PQ9      -0.491100
      3 C2           1.4770     0.0000     0.0000 cc         1 PQ9      -0.085400
      4 C3           2.1480     0.0000     1.1600 cd         1 PQ9      -0.198200
      5 C4           1.4090     0.0030     2.4390 c          1 PQ9       0.558500
      6 O4           2.0170     0.0040     3.4920 o          1 PQ9      -0.501100
      7 C5          -0.0680     0.0020     2.4400 cc         1 PQ9      -0.148400
      8 C6          -0.8210     0.0050     3.7450 c3         1 PQ9      -0.051900
      9 C9          -2.2450     0.0140     1.2800 c3         1 PQ9      -0.050900
     10 C10         -0.7380     0.0070     1.2790 cd         1 PQ9      -0.147400
     11 C11          2.2310    -0.0020    -1.3060 c3         1 PQ9      -0.049000
     12 C12          2.3740    -1.4180    -1.8010 c2         1 PQ9      -0.479200
     13 C13          3.5620    -1.9000    -2.0710 c2         1 PQ9       0.031600
     14 C14          4.7720    -1.0050    -2.0010 c3         1 PQ9      -0.132900
     15 C15          3.7190    -3.3490    -2.4540 c3         1 PQ9      -0.001200
     16 C16          3.7200    -3.4770    -3.9790 c3         1 PQ9      -0.084200
     17 C17          3.8750    -4.9270    -4.3610 c2         1 PQ9      -0.543200
     18 C18          2.9440    -5.5220    -5.0630 c2         1 PQ9       0.034600
     19 C19          1.6680    -4.7920    -5.3960 c3         1 PQ9      -0.136900
     20 C20          3.1470    -6.9390    -5.5370 c3         1 PQ9      -0.072200
     21 C21          2.5050    -7.9070    -4.5420 c3         1 PQ9      -0.089200
     22 C22          2.7090    -9.3230    -5.0160 c2         1 PQ9      -0.526200
     23 C23          3.3980   -10.1650    -4.2860 c2         1 PQ9       0.017600
     24 C24          4.0110    -9.7110    -2.9870 c3         1 PQ9      -0.131900
     25 C25          3.5780   -11.5890    -4.7460 c3         1 PQ9      -0.000200
     26 C26          4.9050   -11.7190    -5.4970 c3         1 PQ9      -0.087200
     27 C27          5.0840   -13.1430    -5.9570 c2         1 PQ9      -0.525200
     28 C28          5.1600   -13.4120    -7.2370 c2         1 PQ9       0.033600
     29 C29          5.0360   -12.3040    -8.2500 c3         1 PQ9      -0.132900
     30 C30          5.3730   -14.8320    -7.6970 c3         1 PQ9      -0.074200
     31 C31          4.0210   -15.4720    -8.0150 c3         1 PQ9      -0.083200
     32 C32          4.2320   -16.8930    -8.4740 c2         1 PQ9      -0.533200
     33 C33          3.7220   -17.8860    -7.7900 c2         1 PQ9       0.034600
     34 C34          3.0250   -17.6180    -6.4800 c3         1 PQ9      -0.129900
     35 C35          3.8320   -19.2950    -8.3120 c3         1 PQ9      -0.073200
     36 C36          5.0530   -19.9750    -7.6900 c3         1 PQ9      -0.089200
     37 C37          5.1630   -21.3850    -8.2120 c2         1 PQ9      -0.531200
     38 C38          6.2290   -21.7570    -8.8750 c2         1 PQ9       0.034600
     39 C39          7.2980   -20.7480    -9.2090 c3         1 PQ9      -0.129900
     40 C40          6.3880   -23.1930    -9.3030 c3         1 PQ9      -0.072200
     41 C41          5.8850   -23.3550   -10.7380 c3         1 PQ9      -0.092200
     42 C42          6.0440   -24.7920   -11.1670 c2         1 PQ9      -0.526200
     43 C43          4.9930   -25.4900   -11.5210 c2         1 PQ9       0.029600
     44 C44          3.6200   -24.8730   -11.4480 c3         1 PQ9      -0.094900
     45 C45          5.1580   -26.9090   -12.0010 c3         1 PQ9      -0.094900
     46 H3           3.2310     0.0000     1.1600 ha         1 PQ9       0.156000
     47 H61         -0.1200    -0.0760     4.5670 hc         1 PQ9       0.056367
     48 H62         -1.5040    -0.8350     3.7690 hc         1 PQ9       0.056367
     49 H63         -1.3800     0.9280     3.8370 hc         1 PQ9       0.056367
     50 H91         -2.6090    -0.9200     1.6890 hc         1 PQ9       0.056700
     51 H92         -2.6060     0.1290     0.2650 hc         1 PQ9       0.056700
     52 H93         -2.6020     0.8380     1.8860 hc         1 PQ9       0.056700
     53 H111         1.6880     0.5830    -2.0370 hc         1 PQ9       0.048700
     54 H112         3.2140     0.4290    -1.1560 hc         1 PQ9       0.048700
     55 H12          2.3620    -0.5720    -2.4770 ha         1 PQ9       0.321000
     56 H141         4.9000    -0.6490    -0.9860 hc         1 PQ9       0.053367
     57 H142         5.6510    -1.5630    -2.3020 hc         1 PQ9       0.053367
     58 H143         4.6360    -0.1600    -2.6660 hc         1 PQ9       0.053367
     59 H151         2.8960    -3.9220    -2.0440 hc         1 PQ9       0.079700
     60 H152         4.6540    -3.7280    -2.0590 hc         1 PQ9       0.079700
     61 H161         4.5430    -2.9050    -4.3880 hc         1 PQ9       0.037700
     62 H162         2.7850    -3.0980    -4.3730 hc         1 PQ9       0.037700
     63 H17          3.9630    -4.0720    -5.0200 ha         1 PQ9       0.354000
     64 H191         1.0070    -5.4520    -5.9440 hc         1 PQ9       0.056700
     65 H192         1.8970    -3.9250    -6.0020 hc         1 PQ9       0.056700
     66 H193         1.1840    -4.4760    -4.4800 hc         1 PQ9       0.056700
     67 H201         2.6870    -7.0640    -6.5100 hc         1 PQ9       0.067200
     68 H202         4.2080    -7.1470    -5.6100 hc         1 PQ9       0.067200
     69 H211         2.9650    -7.7830    -3.5690 hc         1 PQ9       0.070700
     70 H212         1.4440    -7.7000    -4.4690 hc         1 PQ9       0.070700
     71 H22          3.4570    -8.5440    -5.1040 ha         1 PQ9       0.353000
     72 H241         4.5060   -10.5470    -2.5090 hc         1 PQ9       0.053367
     73 H242         4.7330    -8.9270    -3.1820 hc         1 PQ9       0.053367
     74 H243         3.2340    -9.3310    -2.3350 hc         1 PQ9       0.053367
     75 H251         2.7620   -11.8610    -5.4050 hc         1 PQ9       0.074700
     76 H252         3.5830   -12.2480    -3.8870 hc         1 PQ9       0.074700
     77 H261         4.9000   -11.0600    -6.3570 hc         1 PQ9       0.036700
     78 H262         5.7210   -11.4470    -4.8380 hc         1 PQ9       0.036700
     79 H27          5.8670   -12.3950    -5.9300 ha         1 PQ9       0.344000
     80 H291         5.8230   -11.5770    -8.0880 hc         1 PQ9       0.055367
     81 H292         5.1250   -12.7150    -9.2480 hc         1 PQ9       0.055367
     82 H293         4.0720   -11.8220    -8.1410 hc         1 PQ9       0.055367
     83 H301         5.9930   -14.8350    -8.5860 hc         1 PQ9       0.066200
     84 H302         5.8640   -15.3960    -6.9130 hc         1 PQ9       0.066200
     85 H311         3.4010   -15.4680    -7.1260 hc         1 PQ9       0.069200
     86 H312         3.5300   -14.9080    -8.7990 hc         1 PQ9       0.069200
     87 H32          4.8470   -16.4400    -7.7060 ha         1 PQ9       0.349000
     88 H341         3.7250   -17.1750    -5.7820 hc         1 PQ9       0.055700
     89 H342         2.6500   -18.5500    -6.0730 hc         1 PQ9       0.055700
     90 H343         2.1980   -16.9370    -6.6430 hc         1 PQ9       0.055700
     91 H351         3.9390   -19.2740    -9.3890 hc         1 PQ9       0.071700
     92 H352         2.9380   -19.8480    -8.0490 hc         1 PQ9       0.071700
     93 H361         4.9450   -19.9970    -6.6120 hc         1 PQ9       0.063200
     94 H362         5.9470   -19.4220    -7.9530 hc         1 PQ9       0.063200
     95 H37          4.8420   -20.5600    -8.8370 ha         1 PQ9       0.351000
     96 H391         7.6700   -20.3000    -8.2960 hc         1 PQ9       0.054033
     97 H392         6.8820   -19.9780    -9.8460 hc         1 PQ9       0.054033
     98 H393         8.1120   -21.2430    -9.7260 hc         1 PQ9       0.054033
     99 H401         5.8120   -23.8320    -8.6450 hc         1 PQ9       0.072700
    100 H402         7.4340   -23.4710    -9.2530 hc         1 PQ9       0.072700
    101 H411         4.8400   -23.0770   -10.7890 hc         1 PQ9       0.061200
    102 H412         6.4610   -22.7160   -11.3970 hc         1 PQ9       0.061200
    103 H42          5.7210   -24.5000   -10.1750 ha         1 PQ9       0.349000
    104 H441         3.5870   -23.9890   -12.0720 hc         1 PQ9       0.051533
    105 H442         2.8840   -25.5880   -11.7960 hc         1 PQ9       0.051533
    106 H443         3.4010   -24.6000   -10.4230 hc         1 PQ9       0.051533
    107 H451         4.6380   -27.0340   -12.9430 hc         1 PQ9       0.051533
    108 H452         6.2110   -27.1240   -12.1380 hc         1 PQ9       0.051533
    109 H453         4.7430   -27.5890   -11.2660 hc         1 PQ9       0.051533
@<TRIPOS>BOND
     1     1     2 2
     2     1     3 1
     3     1    10 1
     4     3     4 2
     5     3    11 1
     6     4     5 1
     7     4    46 1
     8     5     6 2
     9     5     7 1
    10     7     8 1
    11     7    10 2
    12     8    47 1
    13     8    48 1
    14     8    49 1
    15     9    10 1
    16     9    50 1
    17     9    51 1
    18     9    52 1
    19    11    12 1
    20    11    53 1
    21    11    54 1
    22    12    13 2
    23    12    55 1
    24    13    14 1
    25    13    15 1
    26    14    56 1
    27    14    57 1
    28    14    58 1
    29    15    16 1
    30    15    59 1
    31    15    60 1
    32    16    17 1
    33    16    61 1
    34    16    62 1
    35    17    18 2
    36    17    63 1
    37    18    19 1
    38    18    20 1
    39    19    64 1
    40    19    65 1
    41    19    66 1
    42    20    21 1
    43    20    67 1
    44    20    68 1
    45    21    22 1
    46    21    69 1
    47    21    70 1
    48    22    23 2
    49    22    71 1
    50    23    24 1
    51    23    25 1
    52    24    72 1
    53    24    73 1
    54    24    74 1
    55    25    26 1
    56    25    75 1
    57    25    76 1
    58    26    27 1
    59    26    77 1
    60    26    78 1
    61    27    28 2
    62    27    79 1
    63    28    29 1
    64    28    30 1
    65    29    80 1
    66    29    81 1
    67    29    82 1
    68    30    31 1
    69    30    83 1
    70    30    84 1
    71    31    32 1
    72    31    85 1
    73    31    86 1
    74    32    33 2
    75    32    87 1
    76    33    34 1
    77    33    35 1
    78    34    88 1
    79    34    89 1
    80    34    90 1
    81    35    36 1
    82    35    91 1
    83    35    92 1
    84    36    37 1
    85    36    93 1
    86    36    94 1
    87    37    38 2
    88    37    95 1
    89    38    39 1
    90    38    40 1
    91    39    96 1
    92    39    97 1
    93    39    98 1
    94    40    41 1
    95    40    99 1
    96    40   100 1
    97    41    42 1
    98    41   101 1
    99    41   102 1
   100    42    43 2
   101    42   103 1
   102    43    44 1
   103    43    45 1
   104    44   104 1
   105    44   105 1
   106    44   106 1
   107    45   107 1
   108    45   108 1
   109    45   109 1
@<TRIPOS>SUBSTRUCTURE
     1 PQ9         1 TEMP              0 ****  ****    0 ROOT
