@<TRIPOS>MOLECULE
molecule
   49    52     1     0     0
SMALL
bcc


@<TRIPOS>ATOM
      1 N1           0.0000     0.0000     0.0000 nv         1 PQA      -0.906200
      2 C2           1.3790     0.0000     0.0000 cc         1 PQA       0.263300
      3 C3           2.2070     0.0000     1.1230 cd         1 PQA      -0.446900
      4 C4           3.5420    -0.0040     0.6500 cd         1 PQA       0.383200
      5 N5           3.5130     0.0030    -0.6520 nc         1 PQA      -0.514800
      6 N6           2.1830     0.0050    -1.0860 na         1 PQA       0.120300
      7 C7           1.7550     0.0120    -2.4200 ca         1 PQA       0.008800
      8 C8           2.4240     0.7840    -3.3610 ca         1 PQA      -0.106000
      9 C9           2.0020     0.7900    -4.6760 ca         1 PQA      -0.156000
     10 C10          0.9130     0.0240    -5.0570 ca         1 PQA       0.132900
     11 F11          0.5010     0.0310    -6.3440 f          1 PQA      -0.135900
     12 C12          0.2440    -0.7480    -4.1210 ca         1 PQA      -0.156000
     13 C13          0.6670    -0.7600    -2.8060 ca         1 PQA      -0.106000
     14 C14          1.7790    -0.0050     2.5250 c          1 PQA       0.633300
     15 O15          0.5970     0.0980     2.8010 o          1 PQA      -0.561100
     16 C16          2.7810    -0.1350     3.6050 ca         1 PQA      -0.140600
     17 C17          3.9670    -0.8380     3.3800 ca         1 PQA      -0.121000
     18 C18          4.8990    -0.9570     4.3890 ca         1 PQA      -0.126000
     19 C19          4.6650    -0.3820     5.6250 ca         1 PQA      -0.145000
     20 C20          3.4890     0.3190     5.8580 ca         1 PQA       0.090100
     21 O21          3.2640     0.8810     7.0740 os         1 PQA      -0.314900
     22 C22          3.0560    -0.1930     7.9940 c3         1 PQA       0.129100
     23 C23          3.6230     0.1880     9.3650 c3         1 PQA      -0.088400
     24 C24          3.2950    -0.9170    10.3710 c3         1 PQA       0.149800
     25 N25          1.8410    -1.0570    10.4970 n7         1 PQA      -0.799200
     26 C26          1.3340    -1.5350     9.2050 c3         1 PQA       0.149800
     27 C27          1.5550    -0.4620     8.1350 c3         1 PQA      -0.088400
     28 C28          2.5490     0.4490     4.8500 ca         1 PQA      -0.093000
     29 HN11        -0.5000    -0.5750     0.6490 hn         1 PQA       0.454300
     30 HN12        -0.5000     0.5540    -0.6670 hn         1 PQA       0.454300
     31 H4           4.4340    -0.0070     1.2650 h4         1 PQA       0.063100
     32 H8           3.2760     1.3830    -3.0630 ha         1 PQA       0.156500
     33 H9           2.5240     1.3920    -5.4100 ha         1 PQA       0.153500
     34 H12         -0.6060    -1.3480    -4.4220 ha         1 PQA       0.153500
     35 H13          0.1440    -1.3630    -2.0740 ha         1 PQA       0.156500
     36 H17          4.1540    -1.2900     2.4130 ha         1 PQA       0.142000
     37 H18          5.8190    -1.5020     4.2130 ha         1 PQA       0.134000
     38 H19          5.4010    -0.4780     6.4140 ha         1 PQA       0.139000
     39 H22          3.5510    -1.0870     7.6340 h1         1 PQA       0.045700
     40 H231         4.6980     0.3020     9.2920 hc         1 PQA       0.061200
     41 H232         3.1770     1.1190     9.6940 hc         1 PQA       0.061200
     42 H241         3.7170    -1.8530    10.0250 h1         1 PQA       0.032950
     43 H242         3.7160    -0.6610    11.3350 h1         1 PQA       0.032950
     44 H25          1.6310    -1.7300    11.2070 hn         1 PQA       0.352800
     45 H261         0.2750    -1.7440     9.2900 h1         1 PQA       0.032950
     46 H262         1.8640    -2.4370     8.9230 h1         1 PQA       0.032950
     47 H271         1.1600    -0.8100     7.1880 hc         1 PQA       0.061200
     48 H272         1.0510     0.4500     8.4300 hc         1 PQA       0.061200
     49 H28          1.6310     0.9950     5.0310 ha         1 PQA       0.161000
@<TRIPOS>BOND
     1     1     2 1
     2     1    29 1
     3     1    30 1
     4     2     3 2
     5     2     6 1
     6     3     4 1
     7     3    14 1
     8     4     5 2
     9     4    31 1
    10     5     6 1
    11     6     7 1
    12     7     8 ar
    13     7    13 ar
    14     8     9 ar
    15     8    32 1
    16     9    10 ar
    17     9    33 1
    18    10    11 1
    19    10    12 ar
    20    12    13 ar
    21    12    34 1
    22    13    35 1
    23    14    15 2
    24    14    16 1
    25    16    17 ar
    26    16    28 ar
    27    17    18 ar
    28    17    36 1
    29    18    19 ar
    30    18    37 1
    31    19    20 ar
    32    19    38 1
    33    20    21 1
    34    20    28 ar
    35    21    22 1
    36    22    23 1
    37    22    27 1
    38    22    39 1
    39    23    24 1
    40    23    40 1
    41    23    41 1
    42    24    25 1
    43    24    42 1
    44    24    43 1
    45    25    26 1
    46    25    44 1
    47    26    27 1
    48    26    45 1
    49    26    46 1
    50    27    47 1
    51    27    48 1
    52    28    49 1
@<TRIPOS>SUBSTRUCTURE
     1 PQA         1 TEMP              0 ****  ****    0 ROOT
