@<TRIPOS>MOLECULE
molecule
   45    47     1     0     0
SMALL
bcc


@<TRIPOS>ATOM
      1 N1           0.0000     0.0000     0.0000 nv         1 PQB      -0.904200
      2 C2           1.3790     0.0000     0.0000 cc         1 PQB       0.264300
      3 C3           2.2090     0.0000     1.1230 cd         1 PQB      -0.446900
      4 C4           3.5430    -0.0040     0.6480 cd         1 PQB       0.383200
      5 N5           3.5130     0.0030    -0.6540 nc         1 PQB      -0.515800
      6 N6           2.1820     0.0070    -1.0860 na         1 PQB       0.118300
      7 C7           1.7540     0.0130    -2.4210 ca         1 PQB       0.009800
      8 C8           0.6650    -0.7570    -2.8070 ca         1 PQB      -0.106500
      9 C9           0.2430    -0.7440    -4.1210 ca         1 PQB      -0.156000
     10 C10          0.9090     0.0290    -5.0570 ca         1 PQB       0.132900
     11 F11          0.4980     0.0360    -6.3430 f          1 PQB      -0.134900
     12 C12          2.0000     0.7930    -4.6760 ca         1 PQB      -0.156000
     13 C13          2.4230     0.7870    -3.3610 ca         1 PQB      -0.106500
     14 C14          1.7810    -0.0070     2.5240 c          1 PQB       0.632300
     15 O15          0.6010     0.1060     2.8010 o          1 PQB      -0.557100
     16 C16          2.7830    -0.1490     3.6030 ca         1 PQB      -0.118600
     17 C17          3.9760    -0.8340     3.3660 ca         1 PQB      -0.145000
     18 C18          4.9090    -0.9650     4.3740 ca         1 PQB      -0.102000
     19 C19          4.6650    -0.4190     5.6210 ca         1 PQB      -0.207000
     20 C20          3.4820     0.2640     5.8670 ca         1 PQB       0.113100
     21 O21          3.2490     0.7980     7.0950 os         1 PQB      -0.288900
     22 C22          4.3900     0.4950     7.9010 c3         1 PQB       0.105400
     23 C23          4.1910     1.0700     9.3040 c3         1 PQB       0.149100
     24 O25          3.0920     0.4120     9.9380 oh         1 PQB      -0.589800
     25 C26          5.4600     0.8540    10.1300 c3         1 PQB       0.129400
     26 O27          5.3180     1.4940    11.3990 oh         1 PQB      -0.603800
     27 C28          2.5420     0.4060     4.8600 ca         1 PQB      -0.105000
     28 HN11        -0.4990    -0.5780     0.6470 hn         1 PQB       0.454300
     29 HN12        -0.5000     0.5310    -0.6860 hn         1 PQB       0.454300
     30 H4           4.4360    -0.0070     1.2620 h4         1 PQB       0.063100
     31 H8           0.1430    -1.3620    -2.0760 ha         1 PQB       0.156500
     32 H9          -0.6070    -1.3450    -4.4220 ha         1 PQB       0.153500
     33 H12          2.5210     1.3970    -5.4090 ha         1 PQB       0.153500
     34 H13          3.2760     1.3840    -3.0630 ha         1 PQB       0.156500
     35 H17          4.1700    -1.2630     2.3900 ha         1 PQB       0.142000
     36 H18          5.8340    -1.4970     4.1880 ha         1 PQB       0.133000
     37 H19          5.4010    -0.5240     6.4090 ha         1 PQB       0.140000
     38 H221         5.2750     0.9300     7.4530 h1         1 PQB       0.051200
     39 H222         4.5090    -0.5800     7.9660 h1         1 PQB       0.051200
     40 H23          3.9830     2.1310     9.2320 h1         1 PQB       0.055700
     41 H25          2.4490     1.0520    10.1960 ho         1 PQB       0.414000
     42 H261         5.6190    -0.2070    10.2760 h1         1 PQB       0.029200
     43 H262         6.3090     1.2770     9.6050 h1         1 PQB       0.029200
     44 H27          6.1310     1.4360    11.8720 ho         1 PQB       0.406000
     45 H28          1.6180     0.9390     5.0510 ha         1 PQB       0.163000
@<TRIPOS>BOND
     1     1     2 1
     2     1    28 1
     3     1    29 1
     4     2     3 2
     5     2     6 1
     6     3     4 1
     7     3    14 1
     8     4     5 2
     9     4    30 1
    10     5     6 1
    11     6     7 1
    12     7     8 ar
    13     7    13 ar
    14     8     9 ar
    15     8    31 1
    16     9    10 ar
    17     9    32 1
    18    10    11 1
    19    10    12 ar
    20    12    13 ar
    21    12    33 1
    22    13    34 1
    23    14    15 2
    24    14    16 1
    25    16    17 ar
    26    16    27 ar
    27    17    18 ar
    28    17    35 1
    29    18    19 ar
    30    18    36 1
    31    19    20 ar
    32    19    37 1
    33    20    21 1
    34    20    27 ar
    35    21    22 1
    36    22    23 1
    37    22    38 1
    38    22    39 1
    39    23    24 1
    40    23    25 1
    41    23    40 1
    42    24    41 1
    43    25    26 1
    44    25    42 1
    45    25    43 1
    46    26    44 1
    47    27    45 1
@<TRIPOS>SUBSTRUCTURE
     1 PQB         1 TEMP              0 ****  ****    0 ROOT
