@<TRIPOS>MOLECULE
PQC
   47    51     1     0     0
SMALL
bcc


@<TRIPOS>ATOM
      1 C1           0.0000     0.0000     0.0000 ca         1 PQC      -0.038000
      2 C2           1.3520     0.0000     0.0000 ca         1 PQC      -0.073000
      3 C3          -0.7500     0.0000     1.1930 ca         1 PQC       0.031900
      4 C4          -0.1050    -0.0000     2.4300 ca         1 PQC      -0.136100
      5 C5          -1.0010    -0.0010     3.5080 cc         1 PQC      -0.098200
      6 S6          -2.4930     0.0000     1.4390 ss         1 PQC      -0.147500
      7 C7          -2.2960    -0.0010     3.1830 cd         1 PQC       0.087400
      8 C8          -3.4090    -0.0010     4.1560 ca         1 PQC      -0.032800
      9 C9          -4.7310    -0.0020     3.7090 ca         1 PQC      -0.088000
     10 C10         -3.1430    -0.0080     5.5260 ca         1 PQC      -0.088000
     11 C11         -4.1850    -0.0080     6.4290 ca         1 PQC      -0.095000
     12 C12         -5.4940    -0.0020     5.9790 ca         1 PQC      -0.086000
     13 C13          1.3660    -0.0010     2.4400 ca         1 PQC       0.482600
     14 C14          2.0660     0.0000     1.2130 ca         1 PQC      -0.298600
     15 C15          3.4710    -0.0020     1.2470 ca         1 PQC       0.509200
     16 N16          4.0700    -0.0030     2.4210 nb         1 PQC      -0.696000
     17 N17          2.0550    -0.0020     3.5820 nb         1 PQC      -0.649000
     18 C18          3.3770    -0.0030     3.5570 ca         1 PQC       0.674900
     19 N19          4.0660    -0.0050     4.7580 nu         1 PQC      -0.294300
     20 C20          5.4580    -0.1230     4.7650 ca         1 PQC       0.022600
     21 C21          6.2070     0.5310     5.7350 ca         1 PQC      -0.059000
     22 C22          6.0960    -0.8990     3.8050 ca         1 PQC      -0.018000
     23 C23          7.4720    -1.0140     3.8150 ca         1 PQC      -0.082000
     24 C24          8.2150    -0.3580     4.7800 ca         1 PQC      -0.024000
     25 C25          7.5840     0.4110     5.7390 ca         1 PQC      -0.192500
     26 S26          8.5340     1.2410     6.9690 sy         1 PQC       0.929200
     27 O27          9.8390     1.4020     6.4270 o          1 PQC      -0.496800
     28 O28          7.7420     2.3290     7.4240 o          1 PQC      -0.496800
     29 N29          8.6870     0.2050     8.2520 nz         1 PQC      -0.133500
     30 C30         -5.7650    -0.0020     4.6230 ca         1 PQC      -0.095000
     31 H1          -0.5240    -0.0000    -0.9480 ha         1 PQC       0.117000
     32 H2           1.8900     0.0000    -0.9410 ha         1 PQC       0.116000
     33 H5          -0.6650    -0.0010     4.5380 ha         1 PQC       0.136000
     34 H9          -4.9450    -0.0010     2.6470 ha         1 PQC       0.111000
     35 H10         -2.1190    -0.0120     5.8790 ha         1 PQC       0.111000
     36 H11         -3.9790    -0.0110     7.4930 ha         1 PQC       0.107500
     37 H12         -6.3100    -0.0020     6.6920 ha         1 PQC       0.107000
     38 H15          4.0480    -0.0020     0.3300 h4         1 PQC      -0.005900
     39 HN19         3.5650     0.0540     5.6230 hn         1 PQC       0.300800
     40 H21          5.7120     1.1350     6.4870 ha         1 PQC       0.129000
     41 H22          5.5140    -1.4130     3.0490 ha         1 PQC       0.153000
     42 H23          7.9700    -1.6170     3.0660 ha         1 PQC       0.129000
     43 H24          9.2940    -0.4500     4.7860 ha         1 PQC       0.124000
     44 HN29         9.1500    -0.6310     7.9530 hn         1 PQC       0.312800
     45 HN2A         7.7790    -0.0250     8.6050 hn         1 PQC       0.312800
     46 H30         -6.7910     0.0010     4.2770 ha         1 PQC       0.107500
     47 H293         9.2240     0.6440     8.9740 hn         1 PQC       0.312800
@<TRIPOS>BOND
     1     1     2 ar  
     2     1     3 ar  
     3     1    31 1   
     4     2    14 ar  
     5     2    32 1   
     6     3     4 ar  
     7     3     6 1   
     8     4     5 1   
     9     4    13 ar  
    10     5     7 2   
    11     5    33 1   
    12     6     7 1   
    13     7     8 1   
    14     8     9 ar  
    15     8    10 ar  
    16     9    30 ar  
    17     9    34 1   
    18    10    11 ar  
    19    10    35 1   
    20    11    12 ar  
    21    11    36 1   
    22    12    30 ar  
    23    12    37 1   
    24    13    14 ar  
    25    13    17 ar  
    26    14    15 ar  
    27    15    16 ar  
    28    15    38 1   
    29    16    18 ar  
    30    17    18 ar  
    31    18    19 1   
    32    19    20 1   
    33    19    39 1   
    34    20    21 ar  
    35    20    22 ar  
    36    21    25 ar  
    37    21    40 1   
    38    22    23 ar  
    39    22    41 1   
    40    23    24 ar  
    41    23    42 1   
    42    24    25 ar  
    43    24    43 1   
    44    25    26 1   
    45    26    27 2   
    46    26    28 2   
    47    26    29 1   
    48    29    44 1   
    49    29    45 1   
    50    29    47 1   
    51    30    46 1   
@<TRIPOS>SUBSTRUCTURE
     1 PQC         1 TEMP              0 ****  ****    0 ROOT
