@<TRIPOS>MOLECULE
molecule
   47    51     1     0     0
SMALL
bcc


@<TRIPOS>ATOM
      1 C1           0.0000     0.0000     0.0000 ca         1 PQC      -0.079000
      2 C2           1.3520     0.0000     0.0000 ca         1 PQC      -0.102000
      3 C3          -0.7500     0.0000     1.1930 ca         1 PQC      -0.017100
      4 C4          -0.1050    -0.0000     2.4300 ca         1 PQC      -0.134100
      5 C5          -1.0010    -0.0010     3.5080 cc         1 PQC      -0.114200
      6 S6          -2.4930     0.0000     1.4390 ss         1 PQC      -0.009500
      7 C7          -2.2960    -0.0010     3.1830 cd         1 PQC       0.021400
      8 C8          -3.4090    -0.0010     4.1560 ca         1 PQC      -0.033800
      9 C9          -4.7310    -0.0020     3.7090 ca         1 PQC      -0.113000
     10 C10         -3.1430    -0.0080     5.5260 ca         1 PQC      -0.113000
     11 C11         -4.1850    -0.0080     6.4290 ca         1 PQC      -0.122000
     12 C12         -5.4940    -0.0020     5.9790 ca         1 PQC      -0.115000
     13 C13          1.3660    -0.0010     2.4400 ca         1 PQC       0.525600
     14 C14          2.0660     0.0000     1.2130 ca         1 PQC      -0.305600
     15 C15          3.4710    -0.0020     1.2470 ca         1 PQC       0.520200
     16 N16          4.0700    -0.0030     2.4210 nb         1 PQC      -0.809000
     17 N17          2.0550    -0.0020     3.5820 nb         1 PQC      -0.764000
     18 C18          3.3770    -0.0030     3.5570 ca         1 PQC       0.913900
     19 N19          4.0660    -0.0050     4.7580 nu         1 PQC      -0.758300
     20 C20          5.4580    -0.1230     4.7650 ca         1 PQC       0.185600
     21 C21          6.2070     0.5310     5.7350 ca         1 PQC      -0.094000
     22 C22          6.0960    -0.8990     3.8050 ca         1 PQC      -0.033000
     23 C23          7.4720    -1.0140     3.8150 ca         1 PQC      -0.114000
     24 C24          8.2150    -0.3580     4.7800 ca         1 PQC      -0.056000
     25 C25          7.5840     0.4110     5.7390 ca         1 PQC      -0.313500
     26 S26          8.5340     1.2410     6.9690 sy         1 PQC       1.220200
     27 O27          9.8390     1.4020     6.4270 o          1 PQC      -0.519800
     28 O28          7.7420     2.3290     7.4240 o          1 PQC      -0.519800
     29 N29          8.6870     0.2050     8.2520 nz         1 PQC      -0.806500
     30 C30         -5.7650    -0.0020     4.6230 ca         1 PQC      -0.122000
     31 H1          -0.5240    -0.0000    -0.9480 ha         1 PQC       0.144000
     32 H2           1.8900     0.0000    -0.9410 ha         1 PQC       0.143000
     33 H5          -0.6650    -0.0010     4.5380 ha         1 PQC       0.163000
     34 H9          -4.9450    -0.0010     2.6470 ha         1 PQC       0.133000
     35 H10         -2.1190    -0.0120     5.8790 ha         1 PQC       0.133000
     36 H11         -3.9790    -0.0110     7.4930 ha         1 PQC       0.136500
     37 H12         -6.3100    -0.0020     6.6920 ha         1 PQC       0.137000
     38 H15          4.0480    -0.0020     0.3300 h4         1 PQC       0.043100
     39 HN19         3.5650     0.0540     5.6230 hn         1 PQC       0.475800
     40 H21          5.7120     1.1350     6.4870 ha         1 PQC       0.155000
     41 H22          5.5140    -1.4130     3.0490 ha         1 PQC       0.189000
     42 H23          7.9700    -1.6170     3.0660 ha         1 PQC       0.165000
     43 H24          9.2940    -0.4500     4.7860 ha         1 PQC       0.152000
     44 HN29         9.1500    -0.6310     7.9530 hn         1 PQC       0.490800
     45 HN2A         7.7790    -0.0250     8.6050 hn         1 PQC       0.490800
     46 H30         -6.7910     0.0010     4.2770 ha         1 PQC       0.136500
     47 H293         9.2240     0.6440     8.9740 hn         1 PQC       0.490800
@<TRIPOS>BOND
     1     1     2 ar
     2     1     3 ar
     3     2    14 ar
     4     3     4 ar
     5     3     6 1
     6     4     5 1
     7     4    13 ar
     8     5     7 2
     9     6     7 1
    10     7     8 1
    11     8     9 ar
    12     8    10 ar
    13     9    30 ar
    14    10    11 ar
    15    11    12 ar
    16    12    30 ar
    17    13    14 ar
    18    13    17 ar
    19    14    15 ar
    20    15    16 ar
    21    16    18 ar
    22    17    18 ar
    23    18    19 1
    24    19    20 1
    25    20    21 ar
    26    20    22 ar
    27    21    25 ar
    28    22    23 ar
    29    23    24 ar
    30    24    25 ar
    31    25    26 1
    32    26    27 2
    33    26    28 2
    34    26    29 1
    35     1    31 1
    36     2    32 1
    37     5    33 1
    38     9    34 1
    39    10    35 1
    40    11    36 1
    41    12    37 1
    42    15    38 1
    43    19    39 1
    44    21    40 1
    45    22    41 1
    46    23    42 1
    47    24    43 1
    48    29    44 1
    49    29    45 1
    50    30    46 1
    51    47    29 1
@<TRIPOS>SUBSTRUCTURE
     1 PQC         1 TEMP              0 ****  ****    0 ROOT
