@<TRIPOS>MOLECULE
PQD
   39    42     1     0     0
SMALL
bcc


@<TRIPOS>ATOM
      1 CAK          0.0000     0.0000     0.0000 ca         1 PQD      -0.095000
      2 CAO          1.3890     0.0000     0.0000 ca         1 PQD       0.036600
      3 NAA          2.0900    -0.0000    -1.2090 nv         1 PQD      -0.561200
      4 CAE          2.0800     0.0000     1.2050 ca         1 PQD      -0.103000
      5 CAD          1.3840     0.0000     2.3980 ca         1 PQD      -0.094000
      6 CAF          0.0020    -0.0000     2.3940 ca         1 PQD      -0.088000
      7 CAP         -0.6890     0.0050     1.1960 ca         1 PQD      -0.127300
      8 CAL         -2.1960     0.0050     1.1960 c3         1 PQD       0.013600
      9 NAW         -2.6850     1.3860     1.2020 na         1 PQD       0.452600
     10 CAU         -2.8600     2.1800     0.0890 ca         1 PQD      -0.277200
     11 CAH         -2.6550     1.9670    -1.2780 ca         1 PQD      -0.041000
     12 CAG         -2.9100     2.9330    -2.1970 ca         1 PQD      -0.174300
     13 C4          -3.3920     4.1940    -1.8060 ca         1 PQD       0.490600
     14 N3          -3.6480     5.1600    -2.7010 nb         1 PQD      -0.760000
     15 C2          -4.1000     6.3350    -2.3040 ca         1 PQD       0.752900
     16 NAB         -4.3520     7.3060    -3.2580 nv         1 PQD      -0.510500
     17 N1          -4.3230     6.6240    -1.0260 nb         1 PQD      -0.783000
     18 C6          -4.1000     5.7330    -0.0680 ca         1 PQD       0.592200
     19 NAC         -4.3360     6.0430     1.2560 nv         1 PQD      -0.535500
     20 C5          -3.6160     4.4620    -0.4360 ca         1 PQD      -0.332600
     21 CAT         -3.3400     3.4170     0.5410 ca         1 PQD      -0.041800
     22 CAI         -3.4420     3.3280     1.9480 cc         1 PQD      -0.198200
     23 CAJ         -3.0460     2.0950     2.3130 cd         1 PQD      -0.264100
     24 HAK         -0.5420     0.0040    -0.9380 ha         1 PQD       0.115000
     25 HAN          2.3610     0.8660    -1.6300 hn         1 PQD       0.275800
     26 HAA          2.3260    -0.8670    -1.6500 hn         1 PQD       0.275800
     27 HAE          3.1630     0.0000     1.2090 ha         1 PQD       0.109000
     28 HAD          1.9220    -0.0020     3.3380 ha         1 PQD       0.104000
     29 HAF         -0.5420     0.0020     3.3310 ha         1 PQD       0.103000
     30 H1          -2.5570    -0.5020     0.3090 h1         1 PQD       0.036700
     31 H2          -2.5580    -0.5100     2.0780 h1         1 PQD       0.036700
     32 HAH         -2.2850     1.0050    -1.6120 ha         1 PQD       0.094000
     33 HAG         -2.7410     2.7280    -3.2470 ha         1 PQD       0.117000
     34 HAB         -4.6960     8.2040    -2.9800 hn         1 PQD       0.271300
     35 HAO         -4.1910     7.1090    -4.2260 hn         1 PQD       0.271300
     36 HAP         -4.1650     5.3620     1.9680 hn         1 PQD       0.284800
     37 HAC         -4.6800     6.9500     1.5040 hn         1 PQD       0.284800
     38 HAI         -3.7840     4.1110     2.6140 ha         1 PQD       0.128000
     39 HAJ         -3.0200     1.7220     3.3300 h4         1 PQD       0.140000
@<TRIPOS>BOND
     1     1     2 ar  
     2     1     7 ar  
     3     1    24 1   
     4     2     3 1   
     5     2     4 ar  
     6     3    25 1   
     7     3    26 1   
     8     4     5 ar  
     9     4    27 1   
    10     5     6 ar  
    11     5    28 1   
    12     6     7 ar  
    13     6    29 1   
    14     7     8 1   
    15     8     9 1   
    16     8    30 1   
    17     8    31 1   
    18     9    10 1   
    19     9    23 1   
    20    10    11 ar  
    21    10    21 ar  
    22    11    12 ar  
    23    11    32 1   
    24    12    13 ar  
    25    12    33 1   
    26    13    14 ar  
    27    13    20 ar  
    28    14    15 ar  
    29    15    16 1   
    30    15    17 ar  
    31    16    34 1   
    32    16    35 1   
    33    17    18 ar  
    34    18    19 1   
    35    18    20 ar  
    36    19    36 1   
    37    19    37 1   
    38    20    21 ar  
    39    21    22 1   
    40    22    23 2   
    41    22    38 1   
    42    23    39 1   
@<TRIPOS>SUBSTRUCTURE
     1 PQD         1 TEMP              0 ****  ****    0 ROOT
