@<TRIPOS>MOLECULE
PQE
   97    96     1     0     0
SMALL
bcc


@<TRIPOS>ATOM
      1 O47         2.8250   -1.5610    0.4450 oh        1 PQE     -0.600800
      2 C68         3.9840   -0.7630    0.5580 c3        1 PQE      0.131400
      3 C52         4.1580   -0.2200    1.9730 c3        1 PQE      0.087400
      4 O70         3.0710    0.6770    2.1890 os        1 PQE     -0.438600
      5 C55         3.0750    1.2270    3.5050 c3        1 PQE      0.129400
      6 C58         1.9940    2.3030    3.5280 c3        1 PQE      0.125400
      7 O71         2.6710    3.5520    3.6580 os        1 PQE     -0.427600
      8 C61         1.7750    4.6590    3.5670 c3        1 PQE      0.127400
      9 C62         2.5840    5.9010    3.8930 c3        1 PQE     -0.083400
     10 C63         1.7150    7.1360    3.8050 c3        1 PQE     -0.079400
     11 C66         2.5280    8.3860    4.0620 c3        1 PQE     -0.083400
     12 C67         1.6690    9.6250    3.8790 c3        1 PQE      0.121400
     13 O72         2.5020   10.7470    4.1760 os        1 PQE     -0.424600
     14 C65         1.9540   11.9840    3.7460 c3        1 PQE      0.125400
     15 C64         2.1090   12.1730    2.2400 c3        1 PQE      0.094400
     16 O73         0.8810   11.7620    1.6410 os        1 PQE     -0.435600
     17 C60         0.9530   11.7590    0.2160 c3        1 PQE      0.126400
     18 C59        -0.4750   11.5400   -0.2730 c3        1 PQE      0.116400
     19 O74        -0.3650   11.1570   -1.6440 os        1 PQE     -0.427600
     20 C57        -1.6140   11.1420   -2.3210 c3        1 PQE      0.124400
     21 C56        -2.0710   12.5510   -2.6870 c3        1 PQE      0.092400
     22 O75        -2.9050   13.0210   -1.6290 os        1 PQE     -0.437600
     23 C54        -2.8050   14.4280   -1.4230 c3        1 PQE      0.097400
     24 C53        -3.7200   14.7820   -0.2550 c3        1 PQE      0.129400
     25 O76        -3.1000   14.4950    0.9880 os        1 PQE     -0.424600
     26 C51        -3.3570   13.1690    1.4590 c3        1 PQE      0.124400
     27 C50        -2.4040   12.9200    2.6150 c3        1 PQE     -0.093400
     28 C49        -2.9630   11.8660    3.5460 c3        1 PQE     -0.074400
     29 C48        -1.9650   11.5080    4.6260 c3        1 PQE     -0.081400
     30 C47        -2.5810   10.5830    5.6550 c3        1 PQE     -0.079400
     31 C46        -1.5790   10.2110    6.7270 c3        1 PQE     -0.079400
     32 C45        -2.1780    9.3270    7.8000 c3        1 PQE     -0.076400
     33 C44        -2.3490    7.8830    7.3740 c3        1 PQE     -0.078400
     34 C43        -1.0430    7.1180    7.3820 c3        1 PQE     -0.079400
     35 C42        -1.2580    5.6640    7.0180 c3        1 PQE     -0.080400
     36 C41         0.0460    4.8960    7.0320 c3        1 PQE     -0.083400
     37 C40        -0.1550    3.4550    6.6410 c3        1 PQE     -0.094100
     38 HO47        2.0790   -1.0120    0.7210 ho        1 PQE      0.412000
     39 H681        3.9430    0.0860   -0.1760 h1        1 PQE      0.053200
     40 H682        4.8370   -1.4480    0.3060 h1        1 PQE      0.053200
     41 H521        5.1310    0.3290    2.0680 h1        1 PQE      0.039700
     42 H522        4.1170   -1.0510    2.7250 h1        1 PQE      0.039700
     43 H551        2.8390    0.4150    4.2420 h1        1 PQE      0.045200
     44 H552        4.0800    1.6680    3.7390 h1        1 PQE      0.045200
     45 H581        1.3920    2.2850    2.5800 h1        1 PQE      0.042700
     46 H582        1.3130    2.1600    4.4090 h1        1 PQE      0.042700
     47 H611        0.9310    4.5260    4.2980 h1        1 PQE      0.029700
     48 H612        1.3540    4.7100    2.5270 h1        1 PQE      0.029700
     49 H621        3.4460    5.9790    3.1800 hc        1 PQE      0.056200
     50 H622        3.0140    5.8040    4.9240 hc        1 PQE      0.056200
     51 H631        0.8830    7.0670    4.5550 hc        1 PQE      0.042200
     52 H632        1.2440    7.1950    2.7880 hc        1 PQE      0.042200
     53 H661        2.9450    8.3710    5.1020 hc        1 PQE      0.054200
     54 H662        3.3990    8.4340    3.3570 hc        1 PQE      0.054200
     55 H671        0.7990    9.6250    4.5900 h1        1 PQE      0.037700
     56 H672        1.2820    9.7000    2.8280 h1        1 PQE      0.037700
     57 H651        2.5690   12.7520    4.2880 h1        1 PQE      0.061700
     58 H652        0.8750   12.0690    4.0430 h1        1 PQE      0.061700
     59 H641        2.9560   11.5500    1.8480 h1        1 PQE      0.041200
     60 H642        2.2930   13.2530    1.9970 h1        1 PQE      0.041200
     61 H601        1.3550   12.7370   -0.1570 h1        1 PQE      0.040200
     62 H602        1.6250   10.9280   -0.1240 h1        1 PQE      0.040200
     63 H591       -0.9720   10.7170    0.3050 h1        1 PQE      0.050700
     64 H592       -1.0820   12.4790   -0.1750 h1        1 PQE      0.050700
     65 H571       -1.4030   10.5570   -3.2570 h1        1 PQE      0.061200
     66 H572       -2.3950   10.6240   -1.7060 h1        1 PQE      0.061200
     67 H561       -1.1830   13.2190   -2.8370 h1        1 PQE      0.045200
     68 H562       -2.6880   12.5300   -3.6240 h1        1 PQE      0.045200
     69 H541       -1.7430   14.7010   -1.1850 h1        1 PQE      0.038200
     70 H542       -3.1360   14.9670   -2.3500 h1        1 PQE      0.038200
     71 H531       -3.8750   15.8950   -0.2390 h1        1 PQE      0.057200
     72 H532       -4.7040   14.2550   -0.3530 h1        1 PQE      0.057200
     73 H511       -3.1930   12.4290    0.6310 h1        1 PQE      0.035700
     74 H512       -4.4280   13.1140    1.7930 h1        1 PQE      0.035700
     75 H501       -2.2400   13.8780    3.1750 hc        1 PQE      0.061200
     76 H502       -1.4070   12.5930    2.2130 hc        1 PQE      0.061200
     77 H491       -3.9090   12.2440    4.0160 hc        1 PQE      0.037700
     78 H492       -3.2280   10.9470    2.9610 hc        1 PQE      0.037700
     79 H481       -1.0700   11.0140    4.1620 hc        1 PQE      0.041700
     80 H482       -1.6020   12.4420    5.1300 hc        1 PQE      0.041700
     81 H471       -3.4670   11.0850    6.1270 hc        1 PQE      0.039700
     82 H472       -2.9580    9.6560    5.1480 hc        1 PQE      0.039700
     83 H461       -1.1910   11.1500    7.2050 hc        1 PQE      0.040200
     84 H462       -0.7010    9.6940    6.2550 hc        1 PQE      0.040200
     85 H451       -1.5220    9.3650    8.7100 hc        1 PQE      0.039200
     86 H452       -3.1790    9.7390    8.0970 hc        1 PQE      0.039200
     87 H441       -3.0690    7.3820    8.0750 hc        1 PQE      0.039200
     88 H442       -2.8030    7.8410    6.3490 hc        1 PQE      0.039200
     89 H431       -0.5720    7.1850    8.3980 hc        1 PQE      0.040700
     90 H432       -0.3260    7.5830    6.6540 hc        1 PQE      0.040700
     91 H421       -1.9760    5.1960    7.7420 hc        1 PQE      0.038700
     92 H422       -1.7240    5.5970    6.0000 hc        1 PQE      0.038700
     93 H411        0.7730    5.3820    6.3250 hc        1 PQE      0.041200
     94 H412        0.5000    4.9480    8.0570 hc        1 PQE      0.041200
     95 H401       -0.6050    3.3810    5.6200 hc        1 PQE      0.032367
     96 H402        0.8230    2.9140    6.6330 hc        1 PQE      0.032367
     97 H403       -0.8380    2.9430    7.3600 hc        1 PQE      0.032367
@<TRIPOS>BOND
     1    1    2 1   
     2    1   38 1   
     3    2    3 1   
     4    2   39 1   
     5    2   40 1   
     6    3    4 1   
     7    3   41 1   
     8    3   42 1   
     9    4    5 1   
    10    5    6 1   
    11    5   43 1   
    12    5   44 1   
    13    6    7 1   
    14    6   45 1   
    15    6   46 1   
    16    7    8 1   
    17    8    9 1   
    18    8   47 1   
    19    8   48 1   
    20    9   10 1   
    21    9   49 1   
    22    9   50 1   
    23   10   11 1   
    24   10   51 1   
    25   10   52 1   
    26   11   12 1   
    27   11   53 1   
    28   11   54 1   
    29   12   13 1   
    30   12   55 1   
    31   12   56 1   
    32   13   14 1   
    33   14   15 1   
    34   14   57 1   
    35   14   58 1   
    36   15   16 1   
    37   15   59 1   
    38   15   60 1   
    39   16   17 1   
    40   17   18 1   
    41   17   61 1   
    42   17   62 1   
    43   18   19 1   
    44   18   63 1   
    45   18   64 1   
    46   19   20 1   
    47   20   21 1   
    48   20   65 1   
    49   20   66 1   
    50   21   22 1   
    51   21   67 1   
    52   21   68 1   
    53   22   23 1   
    54   23   24 1   
    55   23   69 1   
    56   23   70 1   
    57   24   25 1   
    58   24   71 1   
    59   24   72 1   
    60   25   26 1   
    61   26   27 1   
    62   26   73 1   
    63   26   74 1   
    64   27   28 1   
    65   27   75 1   
    66   27   76 1   
    67   28   29 1   
    68   28   77 1   
    69   28   78 1   
    70   29   30 1   
    71   29   79 1   
    72   29   80 1   
    73   30   31 1   
    74   30   81 1   
    75   30   82 1   
    76   31   32 1   
    77   31   83 1   
    78   31   84 1   
    79   32   33 1   
    80   32   85 1   
    81   32   86 1   
    82   33   34 1   
    83   33   87 1   
    84   33   88 1   
    85   34   35 1   
    86   34   89 1   
    87   34   90 1   
    88   35   36 1   
    89   35   91 1   
    90   35   92 1   
    91   36   37 1   
    92   36   93 1   
    93   36   94 1   
    94   37   95 1   
    95   37   96 1   
    96   37   97 1   
@<TRIPOS>SUBSTRUCTURE
     1 PQE         1 TEMP              0 ****  ****    0 ROOT
