@<TRIPOS>MOLECULE
molecule
   97    96     1     0     0
SMALL
bcc


@<TRIPOS>ATOM
      1 O47          0.0000     0.0000     0.0000 oh         1 PQE      -0.595800
      2 C68          1.4230     0.0000     0.0000 c3         1 PQE       0.143400
      3 C52          1.9170     0.0000     1.4340 c3         1 PQE       0.132400
      4 O70          1.4500     1.1720     2.0860 os         1 PQE      -0.390600
      5 C55          1.8850     1.2250     3.4390 c3         1 PQE       0.135400
      6 C58          1.3780     2.5050     4.0720 c3         1 PQE       0.138400
      7 O71          1.9130     3.6160     3.3670 os         1 PQE      -0.408600
      8 C61          1.4540     4.8480     3.9050 c3         1 PQE       0.134400
      9 C62          2.0620     5.9930     3.1060 c3         1 PQE      -0.080400
     10 C63          1.5950     7.3510     3.6230 c3         1 PQE      -0.076400
     11 C66          2.1780     8.4940     2.7870 c3         1 PQE      -0.080400
     12 C67          1.7520     9.8630     3.3050 c3         1 PQE       0.136400
     13 O72          2.3040    10.8840     2.4860 os         1 PQE      -0.405600
     14 C65          1.9250    12.1780     2.9410 c3         1 PQE       0.138400
     15 C64          2.5610    13.2230     2.0440 c3         1 PQE       0.135400
     16 O73          2.1240    13.0150     0.7090 os         1 PQE      -0.384600
     17 C60          2.6910    13.9710    -0.1810 c3         1 PQE       0.136400
     18 C59          2.2090    13.6840    -1.5890 c3         1 PQE       0.135400
     19 O74          0.7900    13.7550    -1.6160 os         1 PQE      -0.389600
     20 C57          0.2800    13.4940    -2.9180 c3         1 PQE       0.136400
     21 C56         -1.2330    13.5840    -2.8850 c3         1 PQE       0.136400
     22 O75         -1.7350    12.6090    -1.9820 os         1 PQE      -0.386600
     23 C54         -3.1540    12.6620    -1.8940 c3         1 PQE       0.134400
     24 C53         -3.6290    11.6020    -0.9190 c3         1 PQE       0.140400
     25 O76         -3.0390    11.8410     0.3510 os         1 PQE      -0.399600
     26 C51         -3.4670    10.8880     1.3140 c3         1 PQE       0.136400
     27 C50         -2.8130    11.1790     2.6590 c3         1 PQE      -0.081400
     28 C49         -3.2560    10.1910     3.7430 c3         1 PQE      -0.076400
     29 C48         -2.6060    10.5200     5.0900 c3         1 PQE      -0.076400
     30 C47         -2.9940     9.5440     6.2060 c3         1 PQE      -0.079400
     31 C46         -2.3240     9.8610     7.5460 c3         1 PQE      -0.075400
     32 C45         -2.7020     8.8770     8.6590 c3         1 PQE      -0.074400
     33 C44         -2.2640     7.4240     8.4470 c3         1 PQE      -0.075400
     34 C43         -0.7450     7.2500     8.3710 c3         1 PQE      -0.079400
     35 C42         -0.3070     5.7870     8.2470 c3         1 PQE      -0.079400
     36 C41          1.2110     5.6070     8.1970 c3         1 PQE      -0.081400
     37 C40          1.5890     4.1470     7.9980 c3         1 PQE      -0.091100
     38 HO47        -0.3140    -0.3810    -0.8030 ho         1 PQE       0.396000
     39 H681         1.7850    -0.8850    -0.5090 h1         1 PQE       0.030700
     40 H682         1.7850     0.8850    -0.5090 h1         1 PQE       0.030700
     41 H521         1.5400    -0.8760     1.9470 h1         1 PQE       0.027700
     42 H522         3.0010    -0.0130     1.4430 h1         1 PQE       0.027700
     43 H551         2.9680     1.2080     3.4730 h1         1 PQE       0.029700
     44 H552         1.4920     0.3730     3.9800 h1         1 PQE       0.029700
     45 H581         1.6940     2.5470     5.1080 h1         1 PQE       0.031700
     46 H582         0.2960     2.5310     4.0220 h1         1 PQE       0.031700
     47 H611         0.3730     4.8920     3.8380 h1         1 PQE       0.021700
     48 H612         1.7570     4.9270     4.9420 h1         1 PQE       0.021700
     49 H621         3.1420     5.9390     3.1790 hc         1 PQE       0.054700
     50 H622         1.7730     5.8920     2.0670 hc         1 PQE       0.054700
     51 H631         0.5140     7.3950     3.5790 hc         1 PQE       0.038200
     52 H632         1.9130     7.4680     4.6530 hc         1 PQE       0.038200
     53 H661         1.8430     8.3860     1.7630 hc         1 PQE       0.054700
     54 H662         3.2590     8.4310     2.8110 hc         1 PQE       0.054700
     55 H671         2.1040     9.9880     4.3220 h1         1 PQE       0.019700
     56 H672         0.6710     9.9330     3.2870 h1         1 PQE       0.019700
     57 H651         0.8470    12.2750     2.9030 h1         1 PQE       0.032700
     58 H652         2.2660    12.3190     3.9590 h1         1 PQE       0.032700
     59 H641         2.2650    14.2120     2.3730 h1         1 PQE       0.027700
     60 H642         3.6390    13.1330     2.0910 h1         1 PQE       0.027700
     61 H601         3.7720    13.9010    -0.1470 h1         1 PQE       0.028200
     62 H602         2.3830    14.9670     0.1120 h1         1 PQE       0.028200
     63 H591         2.5270    12.6920    -1.8860 h1         1 PQE       0.029700
     64 H592         2.6220    14.4170    -2.2710 h1         1 PQE       0.029700
     65 H571         0.6720    14.2260    -3.6150 h1         1 PQE       0.029200
     66 H572         0.5780    12.5000    -3.2310 h1         1 PQE       0.029200
     67 H561        -1.6290    13.3990    -3.8770 h1         1 PQE       0.027700
     68 H562        -1.5300    14.5720    -2.5550 h1         1 PQE       0.027700
     69 H541        -3.5850    12.4770    -2.8700 h1         1 PQE       0.028700
     70 H542        -3.4590    13.6410    -1.5430 h1         1 PQE       0.028700
     71 H531        -4.7080    11.6470    -0.8320 h1         1 PQE       0.029200
     72 H532        -3.3350    10.6230    -1.2770 h1         1 PQE       0.029200
     73 H511        -3.1870     9.8940     0.9850 h1         1 PQE       0.019200
     74 H512        -4.5440    10.9420     1.4190 h1         1 PQE       0.019200
     75 H501        -3.0790    12.1820     2.9690 hc         1 PQE       0.053700
     76 H502        -1.7370    11.1180     2.5460 hc         1 PQE       0.053700
     77 H491        -2.9710     9.1880     3.4480 hc         1 PQE       0.039200
     78 H492        -4.3330    10.2380     3.8480 hc         1 PQE       0.039200
     79 H481        -2.9050    11.5190     5.3840 hc         1 PQE       0.037700
     80 H482        -1.5300    10.5000     4.9710 hc         1 PQE       0.037700
     81 H471        -4.0690     9.5780     6.3380 hc         1 PQE       0.038700
     82 H472        -2.7120     8.5430     5.9040 hc         1 PQE       0.038700
     83 H461        -1.2490     9.8370     7.4110 hc         1 PQE       0.039200
     84 H462        -2.6140    10.8590     7.8520 hc         1 PQE       0.039200
     85 H451        -2.2610     9.2300     9.5840 hc         1 PQE       0.037700
     86 H452        -3.7790     8.8920     8.7690 hc         1 PQE       0.037700
     87 H441        -2.7010     7.0610     7.5250 hc         1 PQE       0.038700
     88 H442        -2.6400     6.8260     9.2680 hc         1 PQE       0.038700
     89 H431        -0.3760     7.7970     7.5120 hc         1 PQE       0.038200
     90 H432        -0.3030     7.6700     9.2660 hc         1 PQE       0.038200
     91 H421        -0.6930     5.2370     9.0960 hc         1 PQE       0.037200
     92 H422        -0.7350     5.3730     7.3420 hc         1 PQE       0.037200
     93 H411         1.6100     6.1920     7.3770 hc         1 PQE       0.038700
     94 H412         1.6400     5.9610     9.1260 hc         1 PQE       0.038700
     95 H401         2.5720     4.0870     7.5460 hc         1 PQE       0.033367
     96 H402         0.8640     3.6710     7.3500 hc         1 PQE       0.033367
     97 H403         1.6020     3.6440     8.9570 hc         1 PQE       0.033367
@<TRIPOS>BOND
     1     1     2 1
     2     1    38 1
     3     2     3 1
     4     2    39 1
     5     2    40 1
     6     3     4 1
     7     3    41 1
     8     3    42 1
     9     4     5 1
    10     5     6 1
    11     5    43 1
    12     5    44 1
    13     6     7 1
    14     6    45 1
    15     6    46 1
    16     7     8 1
    17     8     9 1
    18     8    47 1
    19     8    48 1
    20     9    10 1
    21     9    49 1
    22     9    50 1
    23    10    11 1
    24    10    51 1
    25    10    52 1
    26    11    12 1
    27    11    53 1
    28    11    54 1
    29    12    13 1
    30    12    55 1
    31    12    56 1
    32    13    14 1
    33    14    15 1
    34    14    57 1
    35    14    58 1
    36    15    16 1
    37    15    59 1
    38    15    60 1
    39    16    17 1
    40    17    18 1
    41    17    61 1
    42    17    62 1
    43    18    19 1
    44    18    63 1
    45    18    64 1
    46    19    20 1
    47    20    21 1
    48    20    65 1
    49    20    66 1
    50    21    22 1
    51    21    67 1
    52    21    68 1
    53    22    23 1
    54    23    24 1
    55    23    69 1
    56    23    70 1
    57    24    25 1
    58    24    71 1
    59    24    72 1
    60    25    26 1
    61    26    27 1
    62    26    73 1
    63    26    74 1
    64    27    28 1
    65    27    75 1
    66    27    76 1
    67    28    29 1
    68    28    77 1
    69    28    78 1
    70    29    30 1
    71    29    79 1
    72    29    80 1
    73    30    31 1
    74    30    81 1
    75    30    82 1
    76    31    32 1
    77    31    83 1
    78    31    84 1
    79    32    33 1
    80    32    85 1
    81    32    86 1
    82    33    34 1
    83    33    87 1
    84    33    88 1
    85    34    35 1
    86    34    89 1
    87    34    90 1
    88    35    36 1
    89    35    91 1
    90    35    92 1
    91    36    37 1
    92    36    93 1
    93    36    94 1
    94    37    95 1
    95    37    96 1
    96    37    97 1
@<TRIPOS>SUBSTRUCTURE
     1 PQE         1 TEMP              0 ****  ****    0 ROOT
