@<TRIPOS>MOLECULE
molecule
   79    80     1     0     0
SMALL
bcc


@<TRIPOS>ATOM
      1 C1           0.0000     0.0000     0.0000 c          1 PQN       0.577900
      2 O1          -0.6110    -0.0010    -1.0500 o          1 PQN      -0.509100
      3 C2           1.4750     0.0000     0.0000 cc         1 PQN      -0.130400
      4 C2M          2.2160    -0.0010    -1.3120 c3         1 PQN      -0.057900
      5 C3           2.1640     0.0000     1.1490 cd         1 PQN      -0.102400
      6 C4           1.4690    -0.0050     2.4480 c          1 PQN       0.583900
      7 O4           2.1070    -0.0090     3.4820 o          1 PQN      -0.520100
      8 C5          -0.0100     0.0020     2.4900 ca         1 PQN      -0.133600
      9 C6          -0.6890     0.0030     3.7030 ca         1 PQN      -0.081000
     10 C7          -2.0750     0.0030     3.7140 ca         1 PQN      -0.118000
     11 C8          -2.7860     0.0020     2.5300 ca         1 PQN      -0.117000
     12 C9          -2.1220     0.0010     1.3130 ca         1 PQN      -0.081000
     13 C10         -0.7330     0.0010     1.2840 ca         1 PQN      -0.134600
     14 C11          3.6700    -0.0000     1.1100 c3         1 PQN      -0.047000
     15 C12          4.1730     1.4200     1.0980 c2         1 PQN      -0.498200
     16 C13          5.0360     1.8180     1.9990 c2         1 PQN       0.064600
     17 C14          5.6220     0.8260     2.9710 c3         1 PQN      -0.136900
     18 C15          5.4440     3.2660     2.0650 c3         1 PQN      -0.048200
     19 C16          4.5010     4.0200     3.0050 c3         1 PQN      -0.071400
     20 C17          4.9150     5.4910     3.0720 c3         1 PQN      -0.076400
     21 C18          3.9720     6.2440     4.0110 c3         1 PQN      -0.073700
     22 C19          2.5380     6.1400     3.4880 c3         1 PQN      -0.092100
     23 C20          4.3870     7.7150     4.0790 c3         1 PQN      -0.077400
     24 C21          3.4430     8.4690     5.0180 c3         1 PQN      -0.085400
     25 C22          3.8580     9.9400     5.0860 c3         1 PQN      -0.077400
     26 C23          2.9150    10.6930     6.0250 c3         1 PQN      -0.074700
     27 C24          1.4820    10.5900     5.5020 c3         1 PQN      -0.091100
     28 C25          3.3290    12.1640     6.0920 c3         1 PQN      -0.077400
     29 C26          2.3870    12.9180     7.0320 c3         1 PQN      -0.085400
     30 C27          2.8010    14.3890     7.0990 c3         1 PQN      -0.076400
     31 C28          1.8580    15.1430     8.0390 c3         1 PQN      -0.077700
     32 C29          2.2720    16.6140     8.1060 c3         1 PQN      -0.087600
     33 C30          0.4240    15.0390     7.5150 c3         1 PQN      -0.087600
     34 H2M1         2.8430    -0.8830    -1.3720 hc         1 PQN       0.059033
     35 H2M2         1.5050    -0.0080    -2.1290 hc         1 PQN       0.059033
     36 H2M3         2.8340     0.8860    -1.3790 hc         1 PQN       0.059033
     37 H6          -0.1370     0.0040     4.6350 ha         1 PQN       0.155000
     38 H7          -2.6040     0.0040     4.6590 ha         1 PQN       0.138000
     39 H8          -3.8690     0.0020     2.5520 ha         1 PQN       0.138000
     40 H9          -2.6840    -0.0000     0.3870 ha         1 PQN       0.156000
     41 H111         4.0080    -0.5110     0.2160 hc         1 PQN       0.046700
     42 H112         4.0530    -0.5120     1.9850 hc         1 PQN       0.046700
     43 H12          4.7370     0.6100     0.6520 ha         1 PQN       0.309000
     44 H141         6.4120     1.3010     3.5400 hc         1 PQN       0.056700
     45 H142         6.0260    -0.0180     2.4260 hc         1 PQN       0.056700
     46 H143         4.8480     0.4820     3.6470 hc         1 PQN       0.056700
     47 H151         6.4590     3.3390     2.4370 hc         1 PQN       0.055700
     48 H152         5.3910     3.7020     1.0750 hc         1 PQN       0.055700
     49 H161         3.4860     3.9480     2.6330 hc         1 PQN       0.053700
     50 H162         4.5540     3.5850     3.9950 hc         1 PQN       0.053700
     51 H171         4.8620     5.9260     2.0810 hc         1 PQN       0.041700
     52 H172         5.9300     5.5630     3.4440 hc         1 PQN       0.041700
     53 H18          4.0270     5.8080     5.0020 hc         1 PQN       0.049700
     54 H191         1.8650     6.6330     4.1790 hc         1 PQN       0.036367
     55 H192         2.2620     5.0970     3.3960 hc         1 PQN       0.036367
     56 H193         2.4730     6.6180     2.5180 hc         1 PQN       0.036367
     57 H201         4.3340     8.1500     3.0880 hc         1 PQN       0.041200
     58 H202         5.4010     7.7870     4.4510 hc         1 PQN       0.041200
     59 H211         2.4290     8.3960     4.6460 hc         1 PQN       0.044700
     60 H212         3.4960     8.0330     6.0090 hc         1 PQN       0.044700
     61 H221         3.8050    10.3760     4.0950 hc         1 PQN       0.040700
     62 H222         4.8720    10.0130     5.4580 hc         1 PQN       0.040700
     63 H23          2.9690    10.2580     7.0160 hc         1 PQN       0.049700
     64 H241         1.1810     9.5490     5.4770 hc         1 PQN       0.034700
     65 H242         0.8180    11.1420     6.1550 hc         1 PQN       0.034700
     66 H243         1.4320    11.0040     4.5020 hc         1 PQN       0.034700
     67 H251         3.2760    12.6000     5.1020 hc         1 PQN       0.040700
     68 H252         4.3440    12.2370     6.4640 hc         1 PQN       0.040700
     69 H261         1.3720    12.8460     6.6600 hc         1 PQN       0.043700
     70 H262         2.4400    12.4830     8.0220 hc         1 PQN       0.043700
     71 H271         2.7480    14.8250     6.1090 hc         1 PQN       0.040700
     72 H272         3.8160    14.4620     7.4720 hc         1 PQN       0.040700
     73 H28          1.9120    14.7070     9.0290 hc         1 PQN       0.048700
     74 H291         2.1720    17.0620     7.1250 hc         1 PQN       0.032867
     75 H292         1.6350    17.1360     8.8090 hc         1 PQN       0.032867
     76 H293         3.3030    16.6840     8.4320 hc         1 PQN       0.032867
     77 H301        -0.1550    15.8780     7.8810 hc         1 PQN       0.032867
     78 H302        -0.0210    14.1150     7.8630 hc         1 PQN       0.032867
     79 H303         0.4330    15.0510     6.4320 hc         1 PQN       0.032867
@<TRIPOS>BOND
     1     1     2 2
     2     1     3 1
     3     1    13 1
     4     3     4 1
     5     3     5 2
     6     4    34 1
     7     4    35 1
     8     4    36 1
     9     5     6 1
    10     5    14 1
    11     6     7 2
    12     6     8 1
    13     8     9 ar
    14     8    13 ar
    15     9    10 ar
    16     9    37 1
    17    10    11 ar
    18    10    38 1
    19    11    12 ar
    20    11    39 1
    21    12    13 ar
    22    12    40 1
    23    14    15 1
    24    14    41 1
    25    14    42 1
    26    15    16 2
    27    15    43 1
    28    16    17 1
    29    16    18 1
    30    17    44 1
    31    17    45 1
    32    17    46 1
    33    18    19 1
    34    18    47 1
    35    18    48 1
    36    19    20 1
    37    19    49 1
    38    19    50 1
    39    20    21 1
    40    20    51 1
    41    20    52 1
    42    21    22 1
    43    21    23 1
    44    21    53 1
    45    22    54 1
    46    22    55 1
    47    22    56 1
    48    23    24 1
    49    23    57 1
    50    23    58 1
    51    24    25 1
    52    24    59 1
    53    24    60 1
    54    25    26 1
    55    25    61 1
    56    25    62 1
    57    26    27 1
    58    26    28 1
    59    26    63 1
    60    27    64 1
    61    27    65 1
    62    27    66 1
    63    28    29 1
    64    28    67 1
    65    28    68 1
    66    29    30 1
    67    29    69 1
    68    29    70 1
    69    30    31 1
    70    30    71 1
    71    30    72 1
    72    31    32 1
    73    31    33 1
    74    31    73 1
    75    32    74 1
    76    32    75 1
    77    32    76 1
    78    33    77 1
    79    33    78 1
    80    33    79 1
@<TRIPOS>SUBSTRUCTURE
     1 PQN         1 TEMP              0 ****  ****    0 ROOT
