@<TRIPOS>MOLECULE
PQN
   79    80     1     0     0
SMALL
bcc


@<TRIPOS>ATOM
      1 C1          0.7420   -1.1890   -0.0550 c         1 PQN      0.570900
      2 O1          0.2970   -1.5490   -1.1530 o         1 PQN     -0.515100
      3 C2          2.1630   -0.7960    0.1200 cc        1 PQN     -0.127400
      4 C2M         2.9640   -0.6780   -1.1230 c3        1 PQN     -0.069900
      5 C3          2.6920   -0.5720    1.3430 cd        1 PQN     -0.125400
      6 C4          1.8890   -0.7300    2.5810 c         1 PQN      0.574900
      7 O4          2.4130   -0.7310    3.7040 o         1 PQN     -0.519100
      8 C5          0.4290   -0.8900    2.4130 ca        1 PQN     -0.132600
      9 C6         -0.4070   -0.8270    3.5310 ca        1 PQN     -0.086000
     10 C7         -1.7870   -0.9800    3.3850 ca        1 PQN     -0.117000
     11 C8         -2.3350   -1.2040    2.1240 ca        1 PQN     -0.117000
     12 C9         -1.5060   -1.2760    1.0040 ca        1 PQN     -0.085000
     13 C10        -0.1230   -1.1160    1.1410 ca        1 PQN     -0.133600
     14 C11         4.1170   -0.1700    1.5410 c3        1 PQN     -0.014000
     15 C12         4.2870    1.3030    1.4600 c2        1 PQN     -0.188200
     16 C13         4.6760    2.0910    2.4740 c2        1 PQN     -0.090400
     17 C14         4.9660    1.5810    3.8370 c3        1 PQN     -0.072900
     18 C15         4.8600    3.5580    2.2710 c3        1 PQN     -0.047200
     19 C16         3.7170    4.3560    2.8720 c3        1 PQN     -0.075400
     20 C17         3.9330    5.8410    2.6720 c3        1 PQN     -0.076400
     21 C18         2.8510    6.6790    3.3420 c3        1 PQN     -0.064700
     22 C19         1.5320    6.5480    2.6080 c3        1 PQN     -0.090100
     23 C20         3.2940    8.1360    3.4050 c3        1 PQN     -0.076400
     24 C21         2.4960    8.9370    4.4130 c3        1 PQN     -0.079400
     25 C22         2.9840   10.3690    4.4730 c3        1 PQN     -0.076400
     26 C23         2.2500   11.1880    5.5270 c3        1 PQN     -0.064700
     27 C24         0.8340   11.4960    5.0840 c3        1 PQN     -0.089100
     28 C25         3.0210   12.4720    5.8110 c3        1 PQN     -0.076400
     29 C26         2.5810   13.1360    7.0990 c3        1 PQN     -0.079400
     30 C27         3.4080   14.3720    7.3810 c3        1 PQN     -0.076400
     31 C28         3.0030   15.0560    8.6790 c3        1 PQN     -0.067700
     32 C29         4.1010   15.9930    9.1390 c3        1 PQN     -0.089600
     33 C30         1.7030   15.8170    8.5210 c3        1 PQN     -0.089600
     34 H2M1        3.4830    0.3130   -1.1610 hc        1 PQN      0.060033
     35 H2M2        2.3180   -0.7790   -2.0310 hc        1 PQN      0.060033
     36 H2M3        3.7420   -1.4830   -1.1540 hc        1 PQN      0.060033
     37 H6          0.0380   -0.6570    4.5260 ha        1 PQN      0.159000
     38 H7         -2.4390   -0.9250    4.2700 ha        1 PQN      0.142000
     39 H8         -3.4220   -1.3280    2.0080 ha        1 PQN      0.142000
     40 H9         -1.9280   -1.4610    0.0030 ha        1 PQN      0.159000
     41 H111        4.7570   -0.6500    0.7480 hc        1 PQN      0.068700
     42 H112        4.4730   -0.5610    2.5350 hc        1 PQN      0.068700
     43 H12         4.0750    1.7370    0.4680 ha        1 PQN      0.120000
     44 H141        4.1500    0.8980    4.1880 hc        1 PQN      0.050033
     45 H142        5.0620    2.4200    4.5690 hc        1 PQN      0.050033
     46 H143        5.9260    1.0070    3.8360 hc        1 PQN      0.050033
     47 H151        5.8280    3.8740    2.7470 hc        1 PQN      0.045200
     48 H152        4.9370    3.7950    1.1760 hc        1 PQN      0.045200
     49 H161        3.6350    4.1290    3.9680 hc        1 PQN      0.044700
     50 H162        2.7530    4.0410    2.3940 hc        1 PQN      0.044700
     51 H171        4.9340    6.1230    3.0960 hc        1 PQN      0.039700
     52 H172        3.9590    6.0750    1.5750 hc        1 PQN      0.039700
     53 H18         2.7140    6.3040    4.3950 hc        1 PQN      0.047700
     54 H191        1.6360    6.8830    1.5480 hc        1 PQN      0.034033
     55 H192        0.7480    7.1710    3.1000 hc        1 PQN      0.034033
     56 H193        1.1880    5.4860    2.6110 hc        1 PQN      0.034033
     57 H201        3.1930    8.6000    2.3890 hc        1 PQN      0.039700
     58 H202        4.3800    8.1820    3.6840 hc        1 PQN      0.039700
     59 H211        1.4090    8.9180    4.1370 hc        1 PQN      0.040700
     60 H212        2.5890    8.4640    5.4260 hc        1 PQN      0.040700
     61 H221        2.8570   10.8540    3.4700 hc        1 PQN      0.039700
     62 H222        4.0830   10.3680    4.7040 hc        1 PQN      0.039700
     63 H23         2.2040   10.5840    6.4780 hc        1 PQN      0.047700
     64 H241        0.2670   10.5510    4.9050 hc        1 PQN      0.033367
     65 H242        0.2980   12.0830    5.8680 hc        1 PQN      0.033367
     66 H243        0.8380   12.0900    4.1390 hc        1 PQN      0.033367
     67 H251        2.8880   13.1830    4.9550 hc        1 PQN      0.039700
     68 H252        4.1170   12.2380    5.8810 hc        1 PQN      0.039700
     69 H261        2.6840   12.4120    7.9500 hc        1 PQN      0.040200
     70 H262        1.4960   13.4150    7.0310 hc        1 PQN      0.040200
     71 H271        4.4910   14.0820    7.4420 hc        1 PQN      0.039700
     72 H272        3.3070   15.0960    6.5300 hc        1 PQN      0.039700
     73 H28         2.8580   14.2650    9.4680 hc        1 PQN      0.045700
     74 H291        4.3040   16.7700    8.3630 hc        1 PQN      0.033033
     75 H292        3.8010   16.5070   10.0840 hc        1 PQN      0.033033
     76 H293        5.0450   15.4270    9.3280 hc        1 PQN      0.033033
     77 H301        1.4190   16.3010    9.4860 hc        1 PQN      0.033033
     78 H302        0.8790   15.1280    8.2150 hc        1 PQN      0.033033
     79 H303        1.8050   16.6130    7.7440 hc        1 PQN      0.033033
@<TRIPOS>BOND
     1    1    2 2   
     2    1    3 1   
     3    1   13 1   
     4    3    4 1   
     5    3    5 2   
     6    4   34 1   
     7    4   35 1   
     8    4   36 1   
     9    5    6 1   
    10    5   14 1   
    11    6    7 2   
    12    6    8 1   
    13    8    9 ar  
    14    8   13 ar  
    15    9   10 ar  
    16    9   37 1   
    17   10   11 ar  
    18   10   38 1   
    19   11   12 ar  
    20   11   39 1   
    21   12   13 ar  
    22   12   40 1   
    23   14   15 1   
    24   14   41 1   
    25   14   42 1   
    26   15   16 2   
    27   15   43 1   
    28   16   17 1   
    29   16   18 1   
    30   17   44 1   
    31   17   45 1   
    32   17   46 1   
    33   18   19 1   
    34   18   47 1   
    35   18   48 1   
    36   19   20 1   
    37   19   49 1   
    38   19   50 1   
    39   20   21 1   
    40   20   51 1   
    41   20   52 1   
    42   21   22 1   
    43   21   23 1   
    44   21   53 1   
    45   22   54 1   
    46   22   55 1   
    47   22   56 1   
    48   23   24 1   
    49   23   57 1   
    50   23   58 1   
    51   24   25 1   
    52   24   59 1   
    53   24   60 1   
    54   25   26 1   
    55   25   61 1   
    56   25   62 1   
    57   26   27 1   
    58   26   28 1   
    59   26   63 1   
    60   27   64 1   
    61   27   65 1   
    62   27   66 1   
    63   28   29 1   
    64   28   67 1   
    65   28   68 1   
    66   29   30 1   
    67   29   69 1   
    68   29   70 1   
    69   30   31 1   
    70   30   71 1   
    71   30   72 1   
    72   31   32 1   
    73   31   33 1   
    74   31   73 1   
    75   32   74 1   
    76   32   75 1   
    77   32   76 1   
    78   33   77 1   
    79   33   78 1   
    80   33   79 1   
@<TRIPOS>SUBSTRUCTURE
     1 PQN         1 TEMP              0 ****  ****    0 ROOT
