@<TRIPOS>MOLECULE
PQQ
   27    29     1     0     0
SMALL
bcc


@<TRIPOS>ATOM
      1 N1         -0.0470   -0.1010    0.0520 na        1 PQQ     -0.088100
      2 C2          1.3470   -0.0450   -0.0680 cc        1 PQQ     -0.170900
      3 C2X         2.1200   -0.2480   -1.3480 c         1 PQQ      0.933200
      4 O2A         1.5060   -0.5490   -2.4100 o         1 PQQ     -0.847800
      5 O2B         3.3800   -0.1140   -1.2930 o         1 PQQ     -0.847800
      6 C3          1.8950    0.2070    1.2020 cd        1 PQQ     -0.138000
      7 C3A         0.8060    0.2810    2.1250 cd        1 PQQ     -0.318600
      8 C1A        -0.4000    0.0960    1.3690 cc        1 PQQ      0.001700
      9 C4          0.7850    0.4540    3.5430 c         1 PQQ      0.542700
     10 O4          1.7000    0.9100    4.2510 o         1 PQQ     -0.598100
     11 C5         -0.5020   -0.0470    4.1840 c         1 PQQ      0.398600
     12 O5         -0.4490   -0.6470    5.2640 o         1 PQQ     -0.535100
     13 C6A        -1.7630    0.1620    3.4100 ca        1 PQQ      0.308800
     14 N6         -2.9060    0.2980    4.1280 nb        1 PQQ     -0.641000
     15 C7         -4.0610    0.4650    3.4530 ca        1 PQQ      0.361800
     16 C7X        -5.3750    0.6350    4.2330 c         1 PQQ      0.827100
     17 O7A        -5.6760    1.7870    4.6540 o         1 PQQ     -0.843300
     18 O7B        -6.1060   -0.3830    4.3880 o         1 PQQ     -0.843300
     19 C8         -4.1010    0.4890    2.0420 ca        1 PQQ     -0.195300
     20 C9         -2.9280    0.3440    1.2930 ca        1 PQQ     -0.089600
     21 C9X        -3.0710    0.3710   -0.2200 c         1 PQQ      0.906200
     22 O9A        -3.5900    1.3920   -0.7520 o         1 PQQ     -0.835800
     23 O9B        -2.7110   -0.6460   -0.8850 o         1 PQQ     -0.835800
     24 C9A        -1.7130    0.1840    1.9840 ca        1 PQQ     -0.103300
     25 HN1        -0.6870   -0.2790   -0.7000 hn        1 PQQ      0.359700
     26 H3          2.9510    0.3110    1.4250 ha        1 PQQ      0.145000
     27 H8         -5.0600    0.6350    1.5260 ha        1 PQQ      0.146000
@<TRIPOS>BOND
     1    1    2 1   
     2    1    8 1   
     3    1   25 1   
     4    2    3 1   
     5    2    6 2   
     6    3    4 1   
     7    3    5 1   
     8    6    7 1   
     9    6   26 1   
    10    7    8 2   
    11    7    9 1   
    12    8   24 1   
    13    9   10 2   
    14    9   11 1   
    15   11   12 2   
    16   11   13 1   
    17   13   14 ar  
    18   13   24 ar  
    19   14   15 ar  
    20   15   16 1   
    21   15   19 ar  
    22   16   17 1   
    23   16   18 1   
    24   19   20 ar  
    25   19   27 1   
    26   20   21 1   
    27   20   24 ar  
    28   21   22 1   
    29   21   23 1   
@<TRIPOS>SUBSTRUCTURE
     1 PQQ         1 TEMP              0 ****  ****    0 ROOT
