@<TRIPOS>MOLECULE
molecule
   27    29     1     0     0
SMALL
bcc


@<TRIPOS>ATOM
      1 N1           0.0000     0.0000     0.0000 na         1 PQQ      -0.042100
      2 C2           1.3630     0.0000     0.0000 cc         1 PQQ      -0.181900
      3 C2X          1.9910    -0.0020    -1.2540 c          1 PQQ       0.931200
      4 O2A          1.2790    -0.3160    -2.2220 o          1 PQQ      -0.852300
      5 O2B          3.1650     0.2950    -1.3380 o          1 PQQ      -0.852300
      6 C3           1.8530     0.0000     1.2830 cd         1 PQQ      -0.142000
      7 C3A          0.7750     0.0450     2.1080 cd         1 PQQ      -0.248600
      8 C1A         -0.3550     0.0200     1.3290 cc         1 PQQ      -0.039300
      9 C4           0.6820     0.1510     3.4820 c          1 PQQ       0.529700
     10 O4           1.7590     0.3760     4.3100 o          1 PQQ      -0.658100
     11 C5          -0.5940    -0.0880     4.1900 c          1 PQQ       0.336600
     12 O5          -0.6770     0.6110     5.3750 o          1 PQQ      -0.507100
     13 C6A         -1.7600     0.2110     3.2790 ca         1 PQQ       0.276800
     14 N6          -2.8670     0.3970     4.0380 nb         1 PQQ      -0.569000
     15 C7          -4.0100     0.4220     3.3870 ca         1 PQQ       0.328800
     16 C7X         -5.1480     0.7550     4.1640 c          1 PQQ       0.782100
     17 O7A         -5.0490     1.0560     5.3920 o          1 PQQ      -0.854800
     18 O7B         -6.2890     0.8350     3.6450 o          1 PQQ      -0.854800
     19 C8          -4.0670     0.3570     2.0000 ca         1 PQQ      -0.140300
     20 C9          -2.8880     0.1830     1.2370 ca         1 PQQ      -0.142600
     21 C9X         -3.0620     0.1360    -0.1710 c          1 PQQ       0.916200
     22 O9A         -4.1840     0.3750    -0.6540 o          1 PQQ      -0.834800
     23 O9B         -2.1810    -0.1570    -0.9200 o          1 PQQ      -0.834800
     24 C9A         -1.6740     0.1380     1.8770 ca         1 PQQ      -0.056300
     25 HN1         -0.5880     0.2510    -0.7700 hn         1 PQQ       0.386700
     26 H3           2.8950     0.0000     1.5780 ha         1 PQQ       0.141000
     27 H8          -5.0290     0.3810     1.5010 ha         1 PQQ       0.181000
@<TRIPOS>BOND
     1     1     2 1
     2     1     8 1
     3     1    25 1
     4     2     3 1
     5     2     6 2
     6     3     4 1
     7     3     5 1
     8     6     7 1
     9     6    26 1
    10     7     8 2
    11     7     9 1
    12     8    24 1
    13     9    10 2
    14     9    11 1
    15    11    12 2
    16    11    13 1
    17    13    14 ar
    18    13    24 ar
    19    14    15 ar
    20    15    16 1
    21    15    19 ar
    22    16    17 1
    23    16    18 1
    24    19    20 ar
    25    19    27 1
    26    20    21 1
    27    20    24 ar
    28    21    22 1
    29    21    23 1
@<TRIPOS>SUBSTRUCTURE
     1 PQQ         1 TEMP              0 ****  ****    0 ROOT
