@<TRIPOS>MOLECULE
molecule
   20    20     1     0     0
SMALL
bcc


@<TRIPOS>ATOM
      1 O5           0.0000     0.0000     0.0000 oh         1 PQR      -0.507100
      2 C6           1.3600     0.0000     0.0000 ca         1 PQR       0.076100
      3 C7           2.0560     0.0000     1.2070 ca         1 PQR       0.116100
      4 O4           1.3750     0.0000     2.3850 oh         1 PQR      -0.506100
      5 C8           3.4400    -0.0000     1.2060 ca         1 PQR      -0.168000
      6 C9           4.1320    -0.0010     0.0000 ca         1 PQR       0.159600
      7 N2           5.5280    -0.0010    -0.0020 nh         1 PQR      -0.460800
      8 N3           6.1750    -0.0020     1.1140 n2         1 PQR       0.200700
      9 O3           7.3940    -0.0030     1.1100 o          1 PQR      -0.272700
     10 C10          6.2580    -0.0020    -1.2720 c3         1 PQR       0.152100
     11 C5           2.0530    -0.0050    -1.1990 ca         1 PQR      -0.128000
     12 C4           3.4350    -0.0000    -1.2010 ca         1 PQR      -0.159000
     13 H4           7.3230    -0.0010    -1.0770 h1         1 PQR       0.063033
     14 H5           5.9950    -0.8870    -1.8390 h1         1 PQR       0.063033
     15 H6           5.9940     0.8820    -1.8400 h1         1 PQR       0.063033
     16 H7           1.5110    -0.0040    -2.1370 ha         1 PQR       0.148000
     17 H2          -0.3140     0.8540    -0.2460 ho         1 PQR       0.423000
     18 H15          1.4240    -0.8560     2.7770 ho         1 PQR       0.428000
     19 H8           3.9750    -0.0030    -2.1400 ha         1 PQR       0.142000
     20 H1           3.9830    -0.0000     2.1430 ha         1 PQR       0.167000
@<TRIPOS>BOND
     1     9     8 2
     2     8     7 1
     3     7    10 1
     4     7     6 1
     5    12     6 ar
     6    12    11 ar
     7     6     5 ar
     8    11     2 ar
     9     5     3 ar
    10     2     3 ar
    11     2     1 1
    12     3     4 1
    13    10    13 1
    14    10    14 1
    15    10    15 1
    16    11    16 1
    17     1    17 1
    18     4    18 1
    19    12    19 1
    20     5    20 1
@<TRIPOS>SUBSTRUCTURE
     1 PQR         1 TEMP              0 ****  ****    0 ROOT
