@<TRIPOS>MOLECULE
PQW
   64    68     1     0     0
SMALL
bcc


@<TRIPOS>ATOM
      1 S01          0.0000     0.0000     0.0000 ss         1 PQW      -0.114800
      2 C02          1.7060     0.0000     0.0000 cc         1 PQW       0.035900
      3 C03          2.1840     0.0000     1.2480 cd         1 PQW      -0.133000
      4 C04          1.2290    -0.0000     2.2390 cd         1 PQW      -0.074000
      5 C05         -0.0490    -0.0000     1.7570 cc         1 PQW      -0.170000
      6 C06         -1.2670     0.0010     2.5760 ce         1 PQW       0.188800
      7 N07         -2.4390    -0.1900     2.0100 nf         1 PQW      -0.271100
      8 N08         -1.1820     0.2010     3.9390 nz         1 PQW       0.213400
      9 N1'         -4.2240    -2.3830    -5.7070 n7         1 PQW      -0.557200
     10 C11         -2.5130    -0.5430     0.6900 ca         1 PQW      -0.073600
     11 C12         -2.0490    -1.7940     0.2730 ca         1 PQW      -0.011000
     12 C13         -2.1260    -2.1460    -1.0570 ca         1 PQW      -0.167000
     13 C14         -2.6620    -1.2610    -1.9820 ca         1 PQW       0.213100
     14 C15         -3.1240    -0.0170    -1.5720 ca         1 PQW      -0.167000
     15 C16         -3.0570     0.3420    -0.2430 ca         1 PQW      -0.011000
     16 O17         -2.7360    -1.6130    -3.2930 os         1 PQW      -0.289900
     17 C18         -3.2990    -0.6550    -4.1920 c3         1 PQW       0.205400
     18 C2'         -3.2970    -1.2240    -5.6120 c3         1 PQW       0.108500
     19 S21        -11.4250    -3.1370   -10.0070 ss         1 PQW      -0.223800
     20 C22        -12.3880    -4.1630    -9.0420 cc         1 PQW       0.000900
     21 C23        -11.6290    -4.9120    -8.2360 cd         1 PQW      -0.088000
     22 C24        -10.2720    -4.7030    -8.3520 cd         1 PQW      -0.114000
     23 C25         -9.9500    -3.7580    -9.2800 cc         1 PQW      -0.162000
     24 C26         -8.5840    -3.3270    -9.6210 ce         1 PQW       0.547800
     25 N28         -7.5590    -3.8630    -9.0110 n2         1 PQW      -0.779100
     26 C3'         -3.8650    -0.1910    -6.6070 c3         1 PQW      -0.033400
     27 C31         -7.1020    -1.8540   -10.8140 ca         1 PQW       0.055600
     28 C32         -6.6770    -1.6030   -12.1120 ca         1 PQW      -0.171000
     29 C33         -5.4080    -1.1070   -12.3410 ca         1 PQW      -0.038000
     30 C34         -4.5590    -0.8580   -11.2790 ca         1 PQW      -0.156000
     31 C35         -4.9780    -1.1060    -9.9800 ca         1 PQW       0.158100
     32 C36         -6.2530    -1.5990    -9.7460 ca         1 PQW      -0.214000
     33 O37         -4.1420    -0.8620    -8.9370 os         1 PQW      -0.302900
     34 C4'         -4.6810    -1.0170    -7.6230 c3         1 PQW       0.161100
     35 C5'         -4.5370    -2.4820    -7.1550 c3         1 PQW       0.041800
     36 H02          2.3200     0.0000    -0.8930 h4         1 PQW       0.169000
     37 H03          3.2460     0.0000     1.4640 ha         1 PQW       0.142000
     38 H04          1.4670    -0.0000     3.2960 ha         1 PQW       0.107000
     39 HN08        -2.1030     0.2960     4.3200 hn         1 PQW       0.213800
     40 HN0A        -0.6580     1.0330     4.1220 hn         1 PQW       0.213800
     41 HN1'        -3.7510    -3.2130    -5.4100 hn         1 PQW       0.261800
     42 H12         -1.6300    -2.4860     0.9940 ha         1 PQW       0.113000
     43 H13         -1.7670    -3.1160    -1.3810 ha         1 PQW       0.139000
     44 H15         -3.5440     0.6690    -2.2970 ha         1 PQW       0.139000
     45 H16         -3.4170     1.3120     0.0750 ha         1 PQW       0.113000
     46 H18         -2.7100     0.2530    -4.1660 h1         1 PQW       0.012700
     47 H18A        -4.3170    -0.4350    -3.8930 h1         1 PQW       0.012700
     48 H2'         -2.2970    -1.5190    -5.9060 h1         1 PQW       0.027700
     49 H24         -9.2310    -4.8020    -8.0720 ha         1 PQW       0.162000
     50 HN28        -7.7030    -4.5660    -8.3130 hn         1 PQW       0.335400
     51 H3'         -4.5090     0.5120    -6.0920 hc         1 PQW       0.031700
     52 H3'A        -3.0570     0.3280    -7.1100 hc         1 PQW       0.031700
     53 H32         -7.3410    -1.7970   -12.9460 ha         1 PQW       0.111000
     54 H33         -5.0780    -0.9120   -13.3550 ha         1 PQW       0.105000
     55 H34         -3.5640    -0.4720   -11.4620 ha         1 PQW       0.116000
     56 H36         -6.5820    -1.7930    -8.7320 ha         1 PQW       0.145000
     57 H4'         -5.7220    -0.7170    -7.5980 h1         1 PQW       0.035700
     58 H5'         -5.6020    -2.3050    -7.2480 h1         1 PQW       0.067200
     59 H5'A        -4.0520    -3.1870    -7.8180 h1         1 PQW       0.067200
     60 H22        -13.4700    -4.2020    -9.0780 h4         1 PQW       0.156000
     61 H083        -0.7270    -0.5830     4.3640 hn         1 PQW       0.213800
     62 N27         -8.3860    -2.3570   -10.5820 nu         1 PQW      -0.271600
     63 H23        -12.0500    -5.6300    -7.5430 ha         1 PQW       0.124000
     64 HN27        -9.1520    -2.0500   -11.1490 hn         1 PQW       0.294800
@<TRIPOS>BOND
     1     1     2 1   
     2     1     5 1   
     3     2     3 2   
     4     2    36 1   
     5     3     4 1   
     6     3    37 1   
     7     4     5 2   
     8     4    38 1   
     9     5     6 1   
    10     6     7 2   
    11     6     8 1   
    12     7    10 1   
    13     8    39 1   
    14     8    40 1   
    15     8    61 1   
    16     9    18 1   
    17     9    35 1   
    18     9    41 1   
    19    10    11 ar  
    20    10    15 ar  
    21    11    12 ar  
    22    11    42 1   
    23    12    13 ar  
    24    12    43 1   
    25    13    14 ar  
    26    13    16 1   
    27    14    15 ar  
    28    14    44 1   
    29    15    45 1   
    30    16    17 1   
    31    17    18 1   
    32    17    46 1   
    33    17    47 1   
    34    18    26 1   
    35    18    48 1   
    36    19    20 1   
    37    19    23 1   
    38    20    21 2   
    39    20    60 1   
    40    21    22 1   
    41    21    63 1   
    42    22    23 2   
    43    22    49 1   
    44    23    24 1   
    45    24    25 2   
    46    24    62 1   
    47    25    50 1   
    48    26    34 1   
    49    26    51 1   
    50    26    52 1   
    51    27    28 ar  
    52    27    32 ar  
    53    27    62 1   
    54    28    29 ar  
    55    28    53 1   
    56    29    30 ar  
    57    29    54 1   
    58    30    31 ar  
    59    30    55 1   
    60    31    32 ar  
    61    31    33 1   
    62    32    56 1   
    63    33    34 1   
    64    34    35 1   
    65    34    57 1   
    66    35    58 1   
    67    35    59 1   
    68    62    64 1   
@<TRIPOS>SUBSTRUCTURE
     1 PQW         1 TEMP              0 ****  ****    0 ROOT
