@<TRIPOS>MOLECULE
molecule
   64    68     1     0     0
SMALL
bcc


@<TRIPOS>ATOM
      1 S01          0.0000     0.0000     0.0000 ss         1 PQW       0.088200
      2 C02          1.7060     0.0000     0.0000 cc         1 PQW      -0.088100
      3 C03          2.1840     0.0000     1.2480 cd         1 PQW      -0.159000
      4 C04          1.2290    -0.0000     2.2390 cd         1 PQW      -0.112000
      5 C05         -0.0490    -0.0000     1.7570 cc         1 PQW      -0.254000
      6 C06         -1.2670     0.0010     2.5760 ce         1 PQW       0.511800
      7 N07         -2.4390    -0.1900     2.0100 nf         1 PQW      -0.492100
      8 N08         -1.1820     0.2010     3.9390 nz         1 PQW      -0.727600
      9 N1'         -4.2240    -2.3830    -5.7070 n7         1 PQW      -0.761200
     10 C11         -2.5130    -0.5430     0.6900 ca         1 PQW       0.008400
     11 C12         -2.0490    -1.7940     0.2730 ca         1 PQW      -0.058500
     12 C13         -2.1260    -2.1460    -1.0570 ca         1 PQW      -0.186500
     13 C14         -2.6620    -1.2610    -1.9820 ca         1 PQW       0.191100
     14 C15         -3.1240    -0.0170    -1.5720 ca         1 PQW      -0.186500
     15 C16         -3.0570     0.3420    -0.2430 ca         1 PQW      -0.058500
     16 O17         -2.7360    -1.6130    -3.2930 os         1 PQW      -0.310900
     17 C18         -3.2990    -0.6550    -4.1920 c3         1 PQW       0.142400
     18 C2'         -3.2970    -1.2240    -5.6120 c3         1 PQW       0.143500
     19 S21        -11.4250    -3.1370   -10.0070 ss         1 PQW      -0.125800
     20 C22        -12.3880    -4.1630    -9.0420 cc         1 PQW      -0.078100
     21 C23        -11.6290    -4.9120    -8.2360 cd         1 PQW      -0.134000
     22 C24        -10.2720    -4.7030    -8.3520 cd         1 PQW      -0.121000
     23 C25         -9.9500    -3.7580    -9.2800 cc         1 PQW      -0.152000
     24 C26         -8.5840    -3.3270    -9.6210 ce         1 PQW       0.726800
     25 N28         -7.5590    -3.8630    -9.0110 n2         1 PQW      -0.897100
     26 C3'         -3.8650    -0.1910    -6.6070 c3         1 PQW      -0.082400
     27 C31         -7.1020    -1.8540   -10.8140 ca         1 PQW       0.195600
     28 C32         -6.6770    -1.6030   -12.1120 ca         1 PQW      -0.196000
     29 C33         -5.4080    -1.1070   -12.3410 ca         1 PQW      -0.063000
     30 C34         -4.5590    -0.8580   -11.2790 ca         1 PQW      -0.178000
     31 C35         -4.9780    -1.1060    -9.9800 ca         1 PQW       0.160100
     32 C36         -6.2530    -1.5990    -9.7460 ca         1 PQW      -0.278000
     33 O37         -4.1420    -0.8620    -8.9370 os         1 PQW      -0.327900
     34 C4'         -4.6810    -1.0170    -7.6230 c3         1 PQW       0.131100
     35 C5'         -4.5370    -2.4820    -7.1550 c3         1 PQW       0.064800
     36 H02          2.3200     0.0000    -0.8930 h4         1 PQW       0.197000
     37 H03          3.2460     0.0000     1.4640 ha         1 PQW       0.172000
     38 H04          1.4670    -0.0000     3.2960 ha         1 PQW       0.133000
     39 HN08        -0.7250    -0.5820     4.3630 hn         1 PQW       0.469800
     40 HN0A        -2.1030     0.2960     4.3200 hn         1 PQW       0.469800
     41 HN1'        -3.7510    -3.2130    -5.4100 hn         1 PQW       0.360800
     42 H12         -1.6300    -2.4860     0.9940 ha         1 PQW       0.150500
     43 H13         -1.7670    -3.1160    -1.3810 ha         1 PQW       0.166000
     44 H15         -3.5440     0.6690    -2.2970 ha         1 PQW       0.166000
     45 H16         -3.4170     1.3120     0.0750 ha         1 PQW       0.150500
     46 H18         -2.7100     0.2530    -4.1660 h1         1 PQW       0.049200
     47 H18A        -4.3170    -0.4350    -3.8930 h1         1 PQW       0.049200
     48 H2'         -2.2970    -1.5190    -5.9060 h1         1 PQW       0.052700
     49 H24         -9.2310    -4.8020    -8.0720 ha         1 PQW       0.226000
     50 HN28        -6.6310    -3.5700    -9.2420 hn         1 PQW       0.416400
     51 H3'         -3.0570     0.3280    -7.1100 hc         1 PQW       0.066200
     52 H3'A        -4.5090     0.5120    -6.0920 hc         1 PQW       0.066200
     53 H32         -7.3410    -1.7970   -12.9460 ha         1 PQW       0.141000
     54 H33         -5.0780    -0.9120   -13.3550 ha         1 PQW       0.143000
     55 H34         -3.5640    -0.4720   -11.4620 ha         1 PQW       0.147000
     56 H36         -6.5820    -1.7930    -8.7320 ha         1 PQW       0.153000
     57 H4'         -5.7220    -0.7170    -7.5980 h1         1 PQW       0.066700
     58 H5'         -5.6020    -2.3050    -7.2480 h1         1 PQW       0.090200
     59 H5'A        -4.0520    -3.1870    -7.8180 h1         1 PQW       0.090200
     60 H22        -13.4700    -4.2020    -9.0780 h4         1 PQW       0.178000
     61 H083        -0.6560     1.0320     4.1220 hn         1 PQW       0.469800
     62 N27         -8.3860    -2.3570   -10.5820 nu         1 PQW      -0.781600
     63 H23        -12.0500    -5.6300    -7.5430 ha         1 PQW       0.155000
     64 HN27        -9.1520    -2.0500   -11.1490 hn         1 PQW       0.448800
@<TRIPOS>BOND
     1     1     2 1
     2     1     5 1
     3     2     3 2
     4     3     4 1
     5     4     5 2
     6     5     6 1
     7     6     7 2
     8     6     8 1
     9     7    10 1
    10     9    18 1
    11     9    35 1
    12    10    11 ar
    13    10    15 ar
    14    11    12 ar
    15    12    13 ar
    16    13    14 ar
    17    13    16 1
    18    14    15 ar
    19    16    17 1
    20    17    18 1
    21    18    26 1
    22    19    20 1
    23    19    23 1
    24    20    21 2
    25    21    22 1
    26    22    23 2
    27    23    24 1
    28    24    62 1
    29    24    25 2
    30    62    27 1
    31    26    34 1
    32    27    28 ar
    33    27    32 ar
    34    28    29 ar
    35    29    30 ar
    36    30    31 ar
    37    31    32 ar
    38    31    33 1
    39    33    34 1
    40    34    35 1
    41     2    36 1
    42     3    37 1
    43     4    38 1
    44     8    39 1
    45     8    40 1
    46     9    41 1
    47    11    42 1
    48    12    43 1
    49    14    44 1
    50    15    45 1
    51    17    46 1
    52    17    47 1
    53    18    48 1
    54    20    60 1
    55    21    63 1
    56    22    49 1
    57    62    64 1
    58    25    50 1
    59    26    51 1
    60    26    52 1
    61    28    53 1
    62    29    54 1
    63    30    55 1
    64    32    56 1
    65    34    57 1
    66    35    58 1
    67    35    59 1
    68    61     8 1
@<TRIPOS>SUBSTRUCTURE
     1 PQW         1 TEMP              0 ****  ****    0 ROOT
