@<TRIPOS>MOLECULE
molecule
   50    53     1     0     0
SMALL
bcc


@<TRIPOS>ATOM
      1 C1           0.0000     0.0000     0.0000 ca         1 PR1      -0.096000
      2 C2           1.3770     0.0000     0.0000 ca         1 PR1      -0.182000
      3 C3           2.0740     0.0000     1.2020 ca         1 PR1       0.192100
      4 C4           1.3840     0.0020     2.4080 ca         1 PR1      -0.129300
      5 C5           0.0070     0.0080     2.4150 ca         1 PR1       0.006000
      6 C6          -0.6960     0.0010     1.2100 ca         1 PR1      -0.225900
      7 C10         -2.1750     0.0020     1.2150 ce         1 PR1       0.543800
      8 N11         -2.8230     0.0040     2.3450 n2         1 PR1      -0.676100
      9 N12         -2.8680     0.0010     0.0240 nz         1 PR1      -0.801600
     10 C13          2.1440     0.0040     3.7090 c3         1 PR1       0.178300
     11 O44          3.4310    -0.0000     1.1970 oh         1 PR1      -0.492100
     12 C16          0.2280    -4.2310     9.3170 ca         1 PR1      -0.101400
     13 C17          0.0210    -3.6680    10.5580 ca         1 PR1      -0.061000
     14 C18         -1.2870    -3.4820    10.9800 ca         1 PR1      -0.213300
     15 C19         -2.3160    -3.8710    10.1360 ca         1 PR1       0.417200
     16 N20         -2.0930    -4.4020     8.9620 nb         1 PR1      -0.656000
     17 C21         -0.8480    -4.6120     8.4860 ca         1 PR1       0.401100
     18 C25         -0.4510    -5.1840     7.2100 cc         1 PR1      -0.086800
     19 C26          0.8520    -5.3140     6.9250 cd         1 PR1      -0.238500
     20 S27          1.6630    -4.6550     8.3680 ss         1 PR1      -0.044500
     21 N28          2.5950    -1.3570     4.0130 n          1 PR1      -0.494800
     22 C29          1.8460    -2.2820     4.6350 c          1 PR1       0.685500
     23 C30          2.6230    -3.5740     4.7710 c3         1 PR1       0.168500
     24 C31          3.7980    -3.4180     3.7790 c3         1 PR1      -0.104400
     25 C32          3.9250    -1.8810     3.6810 c3         1 PR1       0.089000
     26 N37          1.7900    -4.7200     4.4020 n7         1 PR1      -0.892100
     27 S38          1.5890    -5.9740     5.4650 sy         1 PR1       1.443800
     28 O39          0.6060    -6.8190     4.8840 o          1 PR1      -0.615300
     29 O40          2.9000    -6.3750     5.8420 o          1 PR1      -0.615300
     30 O41          0.7110    -2.1100     5.0260 o          1 PR1      -0.624500
     31 H11         -0.5430    -0.0030    -0.9380 ha         1 PR1       0.108000
     32 H21          1.9180    -0.0010    -0.9390 ha         1 PR1       0.161000
     33 H51         -0.5310     0.0090     3.3560 ha         1 PR1       0.189000
     34 H111        -3.8240     0.0040     2.3500 hn         1 PR1       0.433400
     35 H121        -2.6280    -0.8170    -0.5010 hn         1 PR1       0.463800
     36 H122        -3.8510     0.0010     0.2090 hn         1 PR1       0.463800
     37 H131         1.4990     0.3570     4.5040 h1         1 PR1       0.078200
     38 H132         3.0030     0.6590     3.6240 h1         1 PR1       0.078200
     39 H441         3.7430     0.6520     0.5920 ho         1 PR1       0.443000
     40 H191        -3.3650    -3.7630    10.3830 h4         1 PR1       0.032100
     41 H251        -1.2020    -5.5080     6.4990 ha         1 PR1       0.168000
     42 H301         2.9970    -3.6820     5.7810 h1         1 PR1       0.106700
     43 H311         4.7030    -3.8540     4.1820 hc         1 PR1       0.075700
     44 H312         3.5480    -3.8460     2.8150 hc         1 PR1       0.075700
     45 H321         4.2000    -1.5930     2.6740 h1         1 PR1       0.061700
     46 H322         4.6570    -1.5210     4.3940 h1         1 PR1       0.061700
     47 H371         1.3600    -4.7560     3.4990 hn         1 PR1       0.456800
     48 H171         0.8610    -3.3830    11.1800 ha         1 PR1       0.152000
     49 H123        -2.6320     0.8200    -0.5010 hn         1 PR1       0.463800
     50 H181        -1.5090    -3.0450    11.9460 ha         1 PR1       0.152000
@<TRIPOS>BOND
     1     1     2 ar
     2     1     6 ar
     3     1    31 1
     4     2     3 ar
     5     2    32 1
     6     3     4 ar
     7     3    11 1
     8     4     5 ar
     9     4    10 1
    10     5     6 ar
    11     5    33 1
    12     6     7 1
    13     7     8 2
    14     7     9 1
    15     8    34 1
    16     9    35 1
    17     9    36 1
    18    10    21 1
    19    10    37 1
    20    10    38 1
    21    11    39 1
    22    12    13 ar
    23    12    17 ar
    24    12    20 1
    25    13    14 ar
    26    13    48 1
    27    14    15 ar
    28    14    50 1
    29    15    16 ar
    30    15    40 1
    31    16    17 ar
    32    17    18 1
    33    18    19 2
    34    18    41 1
    35    19    20 1
    36    19    27 1
    37    21    22 1
    38    21    25 1
    39    22    23 1
    40    22    30 2
    41    23    24 1
    42    23    26 1
    43    23    42 1
    44    24    25 1
    45    24    43 1
    46    24    44 1
    47    25    45 1
    48    25    46 1
    49    26    27 1
    50    26    47 1
    51    27    28 2
    52    27    29 2
    53    49     9 1
@<TRIPOS>SUBSTRUCTURE
     1 PR1         1 TEMP              0 ****  ****    0 ROOT
