@<TRIPOS>MOLECULE
PR2
   46    50     1     0     0
SMALL
bcc


@<TRIPOS>ATOM
      1 C16          0.0000     0.0000     0.0000 ca         1 PR2      -0.045400
      2 C17          1.3780     0.0000     0.0000 ca         1 PR2      -0.028000
      3 C18          2.0300     0.0000     1.2240 ca         1 PR2      -0.188300
      4 C19          1.2660    -0.0020     2.3810 ca         1 PR2       0.391200
      5 N20         -0.0430    -0.0020     2.3540 nb         1 PR2      -0.523000
      6 C21         -0.7430    -0.0020     1.2010 ca         1 PR2       0.346100
      7 C25         -2.1850     0.0020     1.0190 cc         1 PR2      -0.056800
      8 C26         -2.6910    -0.0020    -0.2240 cd         1 PR2      -0.021500
      9 S27         -1.2440    -0.0000    -1.2620 ss         1 PR2      -0.179500
     10 N28         -4.3690     4.7380    -1.2510 n          1 PR2      -0.162800
     11 C29         -3.5920     3.6560    -1.0740 c          1 PR2       0.615500
     12 C30         -4.1870     2.4660    -1.7950 c3         1 PR2       0.114500
     13 C31         -5.2050     3.0870    -2.7790 c3         1 PR2      -0.045400
     14 C32         -5.5380     4.4260    -2.0820 c3         1 PR2       0.048000
     15 N37         -4.8610     1.5770    -0.8480 n7         1 PR2      -0.553100
     16 S38         -4.3840    -0.0030    -0.7120 sy         1 PR2       1.068800
     17 O39         -5.1050    -0.5290     0.3940 o          1 PR2      -0.568300
     18 O40         -4.4050    -0.5280    -2.0330 o          1 PR2      -0.568300
     19 C1          -4.0800     6.0620    -0.6940 c3         1 PR2       0.165200
     20 C5          -4.9900     6.0880     2.8890 ca         1 PR2      -0.356500
     21 C2          -6.1810     6.5990     2.3320 ca         1 PR2      -0.085800
     22 C3          -7.2340     6.9290     3.1900 ca         1 PR2      -0.162300
     23 C4          -7.0690     6.7430     4.5340 ca         1 PR2       0.367200
     24 N5          -5.9410     6.2620     5.0270 nb         1 PR2      -0.568000
     25 C6          -4.9150     5.9340     4.2670 ca         1 PR2       0.416200
     26 C27         -5.9630     6.6510     0.8900 cc         1 PR2      -0.157200
     27 C28         -4.7220     6.1860     0.6630 cd         1 PR2      -0.288300
     28 N29         -4.1270     5.8490     1.8450 na         1 PR2       0.401600
     29 H171         1.9360     0.0010    -0.9290 ha         1 PR2       0.119000
     30 H181         3.1120     0.0000     1.2750 ha         1 PR2       0.118000
     31 H191         1.7690    -0.0020     3.3410 h4         1 PR2      -0.017900
     32 H251        -2.8450     0.0030     1.8780 ha         1 PR2       0.130000
     33 H301        -3.4160     1.9340    -2.3390 h1         1 PR2       0.072700
     34 H311        -6.0880     2.4660    -2.8630 hc         1 PR2       0.040700
     35 H312        -4.7490     3.2600    -3.7470 hc         1 PR2       0.040700
     36 H321        -6.4180     4.3140    -1.4600 h1         1 PR2       0.022200
     37 H322        -5.6900     5.2040    -2.8200 h1         1 PR2       0.022200
     38 H371        -5.6260     1.9170    -0.3010 hn         1 PR2       0.352800
     39 H11         -4.4770     6.8250    -1.3530 h1         1 PR2       0.034200
     40 H12         -3.0090     6.1880    -0.6000 h1         1 PR2       0.034200
     41 H41         -7.8780     6.9950     5.2080 h4         1 PR2      -0.019900
     42 H61         -4.0110     5.5440     4.7180 h4         1 PR2      -0.022900
     43 H271        -6.5990     7.1490     0.1680 ha         1 PR2       0.131000
     44 H29         -3.2000     5.4830     1.9380 hn         1 PR2       0.126700
     45 O41         -2.5680     3.6350    -0.4270 o          1 PR2      -0.671500
     46 H31         -8.1630     7.3240     2.7970 ha         1 PR2       0.110000
@<TRIPOS>BOND
     1     1     2 ar  
     2     1     6 ar  
     3     1     9 1   
     4     2     3 ar  
     5     2    29 1   
     6     3     4 ar  
     7     3    30 1   
     8     4     5 ar  
     9     4    31 1   
    10     5     6 ar  
    11     6     7 1   
    12     7     8 2   
    13     7    32 1   
    14     8     9 1   
    15     8    16 1   
    16    10    11 1   
    17    10    14 1   
    18    10    19 1   
    19    11    12 1   
    20    11    45 2   
    21    12    13 1   
    22    12    15 1   
    23    12    33 1   
    24    13    14 1   
    25    13    34 1   
    26    13    35 1   
    27    14    36 1   
    28    14    37 1   
    29    15    16 1   
    30    15    38 1   
    31    16    17 2   
    32    16    18 2   
    33    19    27 1   
    34    19    39 1   
    35    19    40 1   
    36    20    21 ar  
    37    20    25 ar  
    38    20    28 1   
    39    21    22 ar  
    40    21    26 1   
    41    22    23 ar  
    42    22    46 1   
    43    23    24 ar  
    44    23    41 1   
    45    24    25 ar  
    46    25    42 1   
    47    26    27 2   
    48    26    43 1   
    49    27    28 1   
    50    28    44 1   
@<TRIPOS>SUBSTRUCTURE
     1 PR2         1 TEMP              0 ****  ****    0 ROOT
