@<TRIPOS>MOLECULE
PR6
    9     8     1     0     0
SMALL
bcc


@<TRIPOS>ATOM
      1 CL          0.6240   -1.1970    0.0070 cl        1 PR6     -0.258600
      2 CAH         1.7150    0.2070    0.0000 c         1 PR6      0.659700
      3 OAI         1.6650    0.9770    0.9530 o         1 PR6     -0.538100
      4 CAJ         2.5490    0.3120   -1.2150 c3        1 PR6     -0.307400
      5 CAK         3.9500   -0.3680   -1.0810 c         1 PR6      0.939600
      6 OAL         4.2430   -0.9510   -0.0090 o         1 PR6     -0.814300
      7 OAM         4.6850   -0.2630   -2.0980 o         1 PR6     -0.814300
      8 HAJ         2.7330    1.3960   -1.4320 hc        1 PR6      0.067200
      9 HAJA        2.0430   -0.1560   -2.0950 hc        1 PR6      0.067200
@<TRIPOS>BOND
     1    1    2 1   
     2    2    3 2   
     3    2    4 1   
     4    4    5 1   
     5    4    8 1   
     6    4    9 1   
     7    5    6 1   
     8    5    7 1   
@<TRIPOS>SUBSTRUCTURE
     1 PR6         1 TEMP              0 ****  ****    0 ROOT
