@<TRIPOS>MOLECULE
molecule
    9     8     1     0     0
SMALL
bcc


@<TRIPOS>ATOM
      1 Cl           0.0000     0.0000     0.0000 cl         1 PR6      -0.263600
      2 CAH          1.7360     0.0000     0.0000 c          1 PR6       0.573700
      3 OAI          2.3390     0.0000     1.0460 o          1 PR6      -0.428100
      4 CAJ          2.4890    -0.0070    -1.3050 c3         1 PR6      -0.254400
      5 CAK          3.9710    -0.0060    -1.0290 c          1 PR6       0.886600
      6 OAL          4.3730    -0.0000     0.1110 o          1 PR6      -0.822300
      7 OAM          4.8440    -0.0100    -2.0490 o          1 PR6      -0.822300
      8 HAJ          2.2280    -0.8940    -1.8680 hc         1 PR6       0.065700
      9 HAJA         2.2280     0.8750    -1.8770 hc         1 PR6       0.065700
@<TRIPOS>BOND
     1     2     1 1
     2     3     2 2
     3     2     4 1
     4     5     4 1
     5     4     8 1
     6     4     9 1
     7     6     5 1
     8     5     7 1
@<TRIPOS>SUBSTRUCTURE
     1 PR6         1 TEMP              0 ****  ****    0 ROOT
