@<TRIPOS>MOLECULE
PR8
   50    53     1     0     0
SMALL
bcc


@<TRIPOS>ATOM
      1 C            0.0000     0.0000     0.0000 c          1 PR8       0.762100
      2 N            2.0250     1.2610    -0.5920 n7         1 PR8      -0.582200
      3 O           -0.6040     1.0390    -0.1200 o          1 PR8      -0.562000
      4 P           -2.2790    -1.0690     0.1360 p5         1 PR8       0.919800
      5 N1          -5.7990    -9.8660     5.0460 nb         1 PR8      -0.753000
      6 C2          -5.6550    -9.9580     3.7360 ca         1 PR8       0.670900
      7 N3          -5.4440    -8.9060     2.9730 nb         1 PR8      -0.662000
      8 C4          -5.3670    -7.6890     3.5020 ca         1 PR8       0.260800
      9 C5          -5.5130    -7.5380     4.8910 ca         1 PR8      -0.237200
     10 C6          -5.7370    -8.6910     5.6640 ca         1 PR8       0.586200
     11 N6          -5.8900    -8.6040     7.0370 nv         1 PR8      -0.499500
     12 N7          -5.3940    -6.2170     5.1640 nc         1 PR8      -0.519100
     13 C8          -5.1880    -5.5630     4.0570 cd         1 PR8       0.272700
     14 N9          -5.1630    -6.4280     3.0040 na         1 PR8       0.221000
     15 CA           1.5070     0.0000     0.0000 c3         1 PR8       0.048500
     16 CB           2.0450     0.0000     1.4470 c3         1 PR8      -0.041400
     17 CD           3.4060     1.3750    -0.0570 c3         1 PR8       0.143800
     18 CG           3.2950     0.9050     1.4090 c3         1 PR8      -0.062400
     19 C1'         -4.9560    -6.0740     1.5970 c3         1 PR8       0.131800
     20 O10         -0.6700    -1.1540     0.1400 os         1 PR8      -0.458500
     21 O1P         -2.7750    -0.2440     1.4260 o          1 PR8      -0.636500
     22 C2'         -6.3120    -5.8250     0.9000 c3         1 PR8       0.120100
     23 O2'         -6.7220    -6.9840     0.1730 oh         1 PR8      -0.545800
     24 O2P         -2.7340    -0.3850    -1.0930 o          1 PR8      -0.636500
     25 C3'         -6.0280    -4.6520    -0.0650 c3         1 PR8       0.134100
     26 O3'         -6.2530    -5.0520    -1.4180 oh         1 PR8      -0.554800
     27 C4'         -4.5340    -4.3320     0.1630 c3         1 PR8       0.145100
     28 O4'         -4.2510    -4.8180     1.4940 os         1 PR8      -0.373600
     29 C5'         -4.2940    -2.8220     0.0850 c3         1 PR8       0.317400
     30 O5'         -2.8940    -2.5570     0.1820 os         1 PR8      -0.503200
     31 HN           1.4770     2.0320    -0.2680 hn         1 PR8       0.283800
     32 HN6         -5.8530    -9.4320     7.5980 hn         1 PR8       0.272800
     33 HN6A        -6.0720    -7.7180     7.4650 hn         1 PR8       0.272800
     34 HA           1.8910    -0.8550    -0.5430 h1         1 PR8       0.042700
     35 HB           1.3050     0.4110     2.1220 hc         1 PR8       0.026700
     36 HBA          2.3190    -1.0050     1.7450 hc         1 PR8       0.026700
     37 HD           4.0780     0.7290    -0.6090 h1         1 PR8       0.010200
     38 HDA          3.7410     2.4040    -0.0980 h1         1 PR8       0.010200
     39 HG           3.1620     1.7560     2.0670 hc         1 PR8       0.009200
     40 HGA          4.1760     0.3390     1.6890 hc         1 PR8       0.009200
     41 H1'         -4.4090    -6.8540     1.0830 h2         1 PR8       0.065700
     42 H2'         -7.0630    -5.5410     1.6280 h1         1 PR8       0.010700
     43 HO2'        -7.6290    -7.1650     0.3560 ho         1 PR8       0.382000
     44 H3'         -6.6410    -3.7960     0.1910 h1         1 PR8       0.017700
     45 HO3'        -6.9540    -4.5380    -1.7850 ho         1 PR8       0.382000
     46 H4'         -3.9240    -4.8540    -0.5640 h1         1 PR8       0.044700
     47 H5'         -4.6690    -2.4450    -0.8580 h1         1 PR8      -0.007300
     48 H5'A        -4.8120    -2.3330     0.9010 h1         1 PR8      -0.007300
     49 H2          -5.7260   -10.9360     3.2760 h5         1 PR8      -0.010900
     50 H8          -5.0550    -4.4910     3.9840 h5         1 PR8       0.053800
@<TRIPOS>BOND
     1     1     3 2   
     2     1    15 1   
     3     1    20 1   
     4     2    15 1   
     5     2    17 1   
     6     2    31 1   
     7     4    20 1   
     8     4    21 1   
     9     4    24 1   
    10     4    30 1   
    11     5     6 ar  
    12     5    10 ar  
    13     6     7 ar  
    14     6    49 1   
    15     7     8 ar  
    16     8     9 ar  
    17     8    14 1   
    18     9    10 ar  
    19     9    12 1   
    20    10    11 1   
    21    11    32 1   
    22    11    33 1   
    23    12    13 2   
    24    13    14 1   
    25    13    50 1   
    26    14    19 1   
    27    15    16 1   
    28    15    34 1   
    29    16    18 1   
    30    16    35 1   
    31    16    36 1   
    32    17    18 1   
    33    17    37 1   
    34    17    38 1   
    35    18    39 1   
    36    18    40 1   
    37    19    22 1   
    38    19    28 1   
    39    19    41 1   
    40    22    23 1   
    41    22    25 1   
    42    22    42 1   
    43    23    43 1   
    44    25    26 1   
    45    25    27 1   
    46    25    44 1   
    47    26    45 1   
    48    27    28 1   
    49    27    29 1   
    50    27    46 1   
    51    29    30 1   
    52    29    47 1   
    53    29    48 1   
@<TRIPOS>SUBSTRUCTURE
     1 PR8         1 TEMP              0 ****  ****    0 ROOT
