@<TRIPOS>MOLECULE
PRA
   24    24     1     0     0
SMALL
bcc


@<TRIPOS>ATOM
      1 C1           0.0000     0.0000     0.0000 c3         1 PRA      -0.055200
      2 C2           1.5300     0.0000     0.0000 c3         1 PRA      -0.036400
      3 C3           2.0410     0.0000     1.4420 c3         1 PRA       0.054900
      4 C1'          3.5480     0.0000     1.4420 ca         1 PRA      -0.133300
      5 C2'          4.2380     1.1980     1.4420 ca         1 PRA      -0.092500
      6 C3'          5.6210     1.1980     1.4430 ca         1 PRA      -0.086000
      7 C4'          6.3120     0.0000     1.4420 ca         1 PRA      -0.076000
      8 C5'          5.6210    -1.1960     1.4420 ca         1 PRA      -0.086000
      9 C6'          4.2390    -1.1970     1.4470 ca         1 PRA      -0.092500
     10 N           -0.4900     0.0010    -1.3840 nz         1 PRA       0.086400
     11 H11         -0.3610     0.8840     0.5110 hx         1 PRA       0.085700
     12 H12         -0.3610    -0.8850     0.5100 hx         1 PRA       0.085700
     13 H21          1.8910    -0.8840    -0.5110 hc         1 PRA       0.036700
     14 H22          1.8910     0.8840    -0.5110 hc         1 PRA       0.036700
     15 H31          1.6800     0.8840     1.9530 hc         1 PRA       0.027700
     16 H32          1.6800    -0.8840     1.9530 hc         1 PRA       0.027700
     17 H2'          3.6970     2.1360     1.4430 ha         1 PRA       0.103000
     18 H3'          6.1630     2.1360     1.4420 ha         1 PRA       0.114000
     19 H4'          7.3950     0.0000     1.4400 ha         1 PRA       0.115000
     20 H5'          6.1630    -2.1340     1.4430 ha         1 PRA       0.114000
     21 H6'          3.6970    -2.1360     1.4470 ha         1 PRA       0.103000
     22 HN1         -0.1570    -0.8160    -1.8570 hn         1 PRA       0.223133
     23 HN2         -1.4910     0.0010    -1.3840 hn         1 PRA       0.223133
     24 HN3         -0.1570     0.8190    -1.8560 hn         1 PRA       0.223133
@<TRIPOS>BOND
     1     1     2 1   
     2     1    10 1   
     3     1    11 1   
     4     1    12 1   
     5     2     3 1   
     6     2    13 1   
     7     2    14 1   
     8     3     4 1   
     9     3    15 1   
    10     3    16 1   
    11     4     5 ar  
    12     4     9 ar  
    13     5     6 ar  
    14     5    17 1   
    15     6     7 ar  
    16     6    18 1   
    17     7     8 ar  
    18     7    19 1   
    19     8     9 ar  
    20     8    20 1   
    21     9    21 1   
    22    10    22 1   
    23    10    23 1   
    24    10    24 1   
@<TRIPOS>SUBSTRUCTURE
     1 PRA         1 TEMP              0 ****  ****    0 ROOT
