@<TRIPOS>MOLECULE
PRB
   59    62     1     0     0
SMALL
bcc


@<TRIPOS>ATOM
      1 C1          0.1090    0.0190   -0.0770 c2        1 PRB     -0.073200
      2 C2          1.4620    0.0270   -0.0700 ce        1 PRB     -0.217400
      3 C3          1.9660    0.0020    1.3240 c         1 PRB      0.544300
      4 O3          3.1260    0.0710    1.7220 o         1 PRB     -0.518100
      5 C4          0.7330   -0.1770    2.2530 c3        1 PRB      0.060800
      6 O4          0.7200   -1.5310    2.6880 oh        1 PRB     -0.581800
      7 C5          0.7590    0.7710    3.4520 c3        1 PRB     -0.061200
      8 C6         -0.5560    1.3580    3.8360 c2        1 PRB     -0.133400
      9 C7         -1.7570    0.7760    3.6940 c2        1 PRB     -0.138200
     10 C8         -1.9910   -0.5910    3.1500 c3        1 PRB     -0.053500
     11 C9         -1.7610   -0.6810    1.6110 c3        1 PRB      0.200800
     12 O9         -2.8050   -0.0480    0.8720 oh        1 PRB     -0.595800
     13 C10        -0.4680    0.0930    1.3060 c3        1 PRB     -0.060500
     14 C11        -1.7740   -2.1670    1.2100 c3        1 PRB     -0.044700
     15 C12        -3.1260   -2.8470    1.5230 c3        1 PRB      0.183100
     16 O12        -2.7990   -4.2070    1.7700 oh        1 PRB     -0.609800
     17 C13        -3.9180   -2.2370    2.6640 cx        1 PRB      0.070800
     18 C14        -3.3670   -1.0890    3.4820 cx        1 PRB     -0.092700
     19 C15        -3.6010   -2.4370    4.1420 cx        1 PRB     -0.080000
     20 C16        -4.7420   -2.5120    5.1100 c3        1 PRB     -0.072600
     21 C17        -2.4600   -3.3150    4.5420 c3        1 PRB     -0.072600
     22 C18        -1.4740   -2.3990   -0.2570 c3        1 PRB     -0.091100
     23 C19         2.3750    0.0360   -1.2180 c3        1 PRB     -0.040900
     24 C20        -0.4130    2.7210    4.4450 c3        1 PRB      0.167600
     25 O20        -1.6860    3.2120    4.8400 oh        1 PRB     -0.601800
     26 OA1        -5.2790   -2.0020    2.3220 os        1 PRB     -0.408900
     27 CA1        -6.1030   -3.0550    2.0390 c         1 PRB      0.644100
     28 OA2        -5.6620   -4.2060    2.0700 o         1 PRB     -0.556000
     29 CA2        -7.4890   -2.6150    1.7110 c3        1 PRB     -0.151100
     30 H1         -0.5500    0.0310   -0.9490 ha        1 PRB      0.163000
     31 HO4         1.5690   -1.6890    3.1240 ho        1 PRB      0.415000
     32 H51         1.1650    0.2120    4.3410 hc        1 PRB      0.065200
     33 H52         1.4860    1.5990    3.2270 hc        1 PRB      0.065200
     34 H7         -2.6590    1.3200    4.0320 ha        1 PRB      0.148000
     35 H8         -1.2320   -1.2820    3.6300 hc        1 PRB      0.104700
     36 HO9        -3.1100    0.7050    1.3930 ho        1 PRB      0.406000
     37 H10        -0.7450    1.1870    1.4330 hc        1 PRB      0.080700
     38 H11        -0.9760   -2.6820    1.8210 hc        1 PRB      0.095700
     39 H12        -3.7850   -2.7870    0.6050 h1        1 PRB      0.052700
     40 HO12       -3.6170   -4.6640    2.0090 ho        1 PRB      0.430000
     41 H14        -4.0830   -0.2840    3.7550 hc        1 PRB      0.093700
     42 H161       -5.1240   -3.5610    5.1710 hc        1 PRB      0.046867
     43 H162       -5.5830   -1.8470    4.7940 hc        1 PRB      0.046867
     44 H163       -4.3980   -2.1960    6.1250 hc        1 PRB      0.046867
     45 H171       -1.9750   -2.9100    5.4640 hc        1 PRB      0.046867
     46 H172       -2.8350   -4.3470    4.7550 hc        1 PRB      0.046867
     47 H173       -1.6950   -3.3920    3.7300 hc        1 PRB      0.046867
     48 H181       -0.3860   -2.2600   -0.4640 hc        1 PRB      0.043367
     49 H182       -2.0660   -1.7000   -0.8950 hc        1 PRB      0.043367
     50 H183       -1.7410   -3.4500   -0.5290 hc        1 PRB      0.043367
     51 H191        1.8650    0.4190   -2.1360 hc        1 PRB      0.050700
     52 H192        2.7430   -1.0020   -1.4260 hc        1 PRB      0.050700
     53 H193        3.2650    0.6800   -1.0010 hc        1 PRB      0.050700
     54 H201        0.0410    3.4260    3.6930 h1        1 PRB      0.031700
     55 H202        0.2670    2.6590    5.3400 h1        1 PRB      0.031700
     56 HO20       -1.5240    4.0510    5.2870 ho        1 PRB      0.405000
     57 HA21       -7.7400   -2.9590    0.6770 hc        1 PRB      0.077367
     58 HA22       -8.1970   -3.0860    2.4350 hc        1 PRB      0.077367
     59 HA23       -7.5820   -1.5040    1.7660 hc        1 PRB      0.077367
@<TRIPOS>BOND
     1    1    2 2   
     2    1   13 1   
     3    1   30 1   
     4    2    3 1   
     5    2   23 1   
     6    3    4 2   
     7    3    5 1   
     8    5    6 1   
     9    5    7 1   
    10    5   13 1   
    11    6   31 1   
    12    7    8 1   
    13    7   32 1   
    14    7   33 1   
    15    8    9 2   
    16    8   24 1   
    17    9   10 1   
    18    9   34 1   
    19   10   11 1   
    20   10   18 1   
    21   10   35 1   
    22   11   12 1   
    23   11   13 1   
    24   11   14 1   
    25   12   36 1   
    26   13   37 1   
    27   14   15 1   
    28   14   22 1   
    29   14   38 1   
    30   15   16 1   
    31   15   17 1   
    32   15   39 1   
    33   16   40 1   
    34   17   18 1   
    35   17   19 1   
    36   17   26 1   
    37   18   19 1   
    38   18   41 1   
    39   19   20 1   
    40   19   21 1   
    41   20   42 1   
    42   20   43 1   
    43   20   44 1   
    44   21   45 1   
    45   21   46 1   
    46   21   47 1   
    47   22   48 1   
    48   22   49 1   
    49   22   50 1   
    50   23   51 1   
    51   23   52 1   
    52   23   53 1   
    53   24   25 1   
    54   24   54 1   
    55   24   55 1   
    56   25   56 1   
    57   26   27 1   
    58   27   28 2   
    59   27   29 1   
    60   29   57 1   
    61   29   58 1   
    62   29   59 1   
@<TRIPOS>SUBSTRUCTURE
     1 PRB         1 TEMP              0 ****  ****    0 ROOT
