@<TRIPOS>MOLECULE
molecule
   59    62     1     0     0
SMALL
bcc


@<TRIPOS>ATOM
      1 C1           0.0000     0.0000     0.0000 c2         1 PRB      -0.124200
      2 C2           1.3370     0.0000     0.0000 ce         1 PRB      -0.208400
      3 C3           1.8850     0.0000     1.3610 c          1 PRB       0.547300
      4 O3           3.0480     0.1500     1.6810 o          1 PRB      -0.498100
      5 C4           0.7120    -0.2280     2.2910 c3         1 PRB       0.074800
      6 O4           0.7200    -1.6040     2.6730 oh         1 PRB      -0.590800
      7 C5           0.7570     0.6060     3.5340 c3         1 PRB      -0.053200
      8 C6          -0.4950     1.3430     3.8380 c2         1 PRB      -0.159400
      9 C7          -1.6850     0.8590     3.7200 c2         1 PRB      -0.114200
     10 C8          -1.9650    -0.5380     3.2810 c3         1 PRB      -0.020500
     11 C9          -1.7420    -0.6950     1.7700 c3         1 PRB       0.200800
     12 O9          -2.8470    -0.0520     1.1150 oh         1 PRB      -0.599800
     13 C10         -0.4960     0.0520     1.4110 c3         1 PRB      -0.079500
     14 C11         -1.7990    -2.1790     1.4550 c3         1 PRB      -0.096700
     15 C12         -3.2380    -2.6840     1.6100 c3         1 PRB       0.189100
     16 O12         -3.2250    -4.1130     1.6700 oh         1 PRB      -0.587800
     17 C13         -3.9790    -2.1270     2.8000 cx         1 PRB       0.127800
     18 C14         -3.3630    -1.0050     3.6360 cx         1 PRB      -0.071700
     19 C15         -3.5620    -2.3990     4.2360 cx         1 PRB      -0.103000
     20 C16         -4.6960    -2.5580     5.2630 c3         1 PRB      -0.061100
     21 C17         -2.3550    -3.2970     4.4930 c3         1 PRB      -0.061100
     22 C18         -1.3570    -2.4870     0.0210 c3         1 PRB      -0.093100
     23 C19          2.1790    -0.0220    -1.2510 c3         1 PRB      -0.034900
     24 C20         -0.3660     2.7680     4.3060 c3         1 PRB       0.181600
     25 O20         -1.6670     3.3140     4.5340 oh         1 PRB      -0.611800
     26 OA1         -5.4180    -2.0100     2.5950 os         1 PRB      -0.406900
     27 CA1         -6.0660    -2.9160     1.8480 c          1 PRB       0.632100
     28 OA2         -5.4570    -3.8310     1.3450 o          1 PRB      -0.544000
     29 CA2         -7.5530    -2.7940     1.6350 c3         1 PRB      -0.138100
     30 H1          -0.5420    -0.5710    -0.7440 ha         1 PRB       0.174000
     31 HO4          1.5790    -1.8390     2.9830 ho         1 PRB       0.414000
     32 H51          0.9800    -0.0440     4.3710 hc         1 PRB       0.065700
     33 H52          1.5590     1.3270     3.4300 hc         1 PRB       0.065700
     34 H7          -2.5260     1.5010     3.9530 ha         1 PRB       0.160000
     35 H8          -1.2620    -1.1890     3.7880 hc         1 PRB       0.088700
     36 HO9         -2.5210     0.5370     0.4560 ho         1 PRB       0.400000
     37 H10         -0.7410     1.0930     1.5850 hc         1 PRB       0.090700
     38 H11         -1.1610    -2.7110     2.1490 hc         1 PRB       0.093700
     39 H12         -3.7830    -2.3930     0.7200 h1         1 PRB       0.052700
     40 HO12        -3.1900    -4.4650     0.7960 ho         1 PRB       0.406000
     41 H14         -4.0750    -0.2610     3.9740 hc         1 PRB       0.099700
     42 H161        -5.1310    -3.5460     5.1700 hc         1 PRB       0.044367
     43 H162        -4.2980    -2.4310     6.2630 hc         1 PRB       0.044367
     44 H163        -5.4570    -1.8100     5.0790 hc         1 PRB       0.044367
     45 H171        -2.2380    -3.9890     3.6680 hc         1 PRB       0.044367
     46 H172        -1.4640    -2.6880     4.5830 hc         1 PRB       0.044367
     47 H173        -2.5070    -3.8520     5.4110 hc         1 PRB       0.044367
     48 H181        -1.8300    -1.7900    -0.6600 hc         1 PRB       0.038033
     49 H182        -1.6480    -3.4980    -0.2370 hc         1 PRB       0.038033
     50 H183        -0.2810    -2.3920    -0.0530 hc         1 PRB       0.038033
     51 H191         2.7030    -0.9680    -1.3170 hc         1 PRB       0.050700
     52 H192         1.5400     0.0980    -2.1180 hc         1 PRB       0.050700
     53 H193         2.8980     0.7870    -1.2170 hc         1 PRB       0.050700
     54 H201         0.1430     3.3520     3.5490 h1         1 PRB       0.029200
     55 H202         0.2030     2.7950     5.2270 h1         1 PRB       0.029200
     56 HO20        -1.5850     4.1760     4.9080 ho         1 PRB       0.406000
     57 HA21        -8.0670    -3.5260     2.2470 hc         1 PRB       0.067033
     58 HA22        -7.8770    -1.7990     1.9140 hc         1 PRB       0.067033
     59 HA23        -7.7840    -2.9710     0.5920 hc         1 PRB       0.067033
@<TRIPOS>BOND
     1     1     2 2
     2     1    13 1
     3     1    30 1
     4     2     3 1
     5     2    23 1
     6     3     4 2
     7     3     5 1
     8     5     6 1
     9     5     7 1
    10     5    13 1
    11     6    31 1
    12     7     8 1
    13     7    32 1
    14     7    33 1
    15     8     9 2
    16     8    24 1
    17     9    10 1
    18     9    34 1
    19    10    11 1
    20    10    18 1
    21    10    35 1
    22    11    12 1
    23    11    13 1
    24    11    14 1
    25    12    36 1
    26    13    37 1
    27    14    15 1
    28    14    22 1
    29    14    38 1
    30    15    16 1
    31    15    17 1
    32    15    39 1
    33    16    40 1
    34    17    18 1
    35    17    19 1
    36    17    26 1
    37    18    19 1
    38    18    41 1
    39    19    20 1
    40    19    21 1
    41    20    42 1
    42    20    43 1
    43    20    44 1
    44    21    45 1
    45    21    46 1
    46    21    47 1
    47    22    48 1
    48    22    49 1
    49    22    50 1
    50    23    51 1
    51    23    52 1
    52    23    53 1
    53    24    25 1
    54    24    54 1
    55    24    55 1
    56    25    56 1
    57    26    27 1
    58    27    28 2
    59    27    29 1
    60    29    57 1
    61    29    58 1
    62    29    59 1
@<TRIPOS>SUBSTRUCTURE
     1 PRB         1 TEMP              0 ****  ****    0 ROOT
