@<TRIPOS>MOLECULE
PRC
   47    50     1     0     0
SMALL
bcc


@<TRIPOS>ATOM
      1 C1           0.0000     0.0000     0.0000 ca         1 PRC      -0.228300
      2 C2           1.3830     0.0000     0.0000 ca         1 PRC       0.414200
      3 N3           2.0630     0.0000     1.1300 nb         1 PRC      -0.585000
      4 C4           1.4620     0.0070     2.3030 ca         1 PRC       0.423200
      5 C5           0.0720     0.0010     2.3870 cp         1 PRC      -0.281800
      6 C6          -0.6760    -0.0000     1.2070 ca         1 PRC      -0.030000
      7 C7          -0.6030     0.0020     3.7090 cp         1 PRC       0.528800
      8 N8          -1.6980     0.7310     3.9080 nb         1 PRC      -0.681000
      9 C9          -2.2980     0.7380     5.0860 ca         1 PRC       0.706900
     10 N10         -1.8450     0.0190     6.1030 nb         1 PRC      -0.692000
     11 C11         -0.7640    -0.7330     5.9760 ca         1 PRC       0.488200
     12 C12         -0.1010    -0.7660     4.7620 ca         1 PRC      -0.404600
     13 N13         -3.4330     1.5120     5.2620 nu         1 PRC      -0.284300
     14 C14         -4.0100     1.6310     6.5300 ca         1 PRC       0.015600
     15 C15         -3.2080     1.6040     7.6620 ca         1 PRC      -0.133000
     16 C16         -3.7830     1.7240     8.9180 ca         1 PRC      -0.078400
     17 C17         -5.1590     1.8750     9.0390 ca         1 PRC      -0.109000
     18 C18         -5.9530     1.9070     7.9100 ca         1 PRC      -0.065000
     19 C19         -5.3830     1.7880     6.6560 ca         1 PRC      -0.131300
     20 C20         -6.2550     1.8230     5.4290 c3         1 PRC       0.065200
     21 N21         -2.9790     1.6930    10.0620 ns         1 PRC      -0.033100
     22 C22         -3.2730     2.4820    11.1140 c          1 PRC       0.588700
     23 C23         -2.4820     2.3800    12.3580 ca         1 PRC      -0.282900
     24 C25         -2.7770     3.1950    13.4590 ca         1 PRC       0.001000
     25 C26         -2.0050     3.0590    14.5990 ca         1 PRC      -0.233300
     26 C27         -0.9780     2.1330    14.6170 ca         1 PRC       0.426200
     27 N28         -0.7240     1.3780    13.5650 nb         1 PRC      -0.588000
     28 C29         -1.4330     1.4660    12.4580 ca         1 PRC       0.421200
     29 O29         -4.1870     3.2780    11.0400 o          1 PRC      -0.635100
     30 HC1         -0.5480    -0.0010    -0.9350 ha         1 PRC       0.115000
     31 HC2          1.9170    -0.0030    -0.9430 h4         1 PRC      -0.019900
     32 HC4          2.0550     0.0070     3.2100 h4         1 PRC      -0.015900
     33 HC6         -1.7590    -0.0030     1.2370 ha         1 PRC       0.120000
     34 H11C        -0.4010    -1.3170     6.8130 h4         1 PRC      -0.017900
     35 H12C         0.7870    -1.3740     4.6310 ha         1 PRC       0.132000
     36 H13N        -3.8250     2.0070     4.4860 hn         1 PRC       0.298800
     37 H15C        -2.1350     1.4870     7.5650 ha         1 PRC       0.137000
     38 H17C        -5.6090     1.9690    10.0200 ha         1 PRC       0.134000
     39 H18C        -7.0260     2.0270     8.0070 ha         1 PRC       0.108000
     40 H201        -5.9370     2.6320     4.7820 hc         1 PRC       0.008033
     41 H202        -6.1700     0.8820     4.8980 hc         1 PRC       0.008033
     42 H203        -7.2860     1.9800     5.7220 hc         1 PRC       0.008033
     43 H21N        -2.1980     1.0690    10.1070 hn         1 PRC       0.174500
     44 H25C        -3.5870     3.9120    13.4180 ha         1 PRC       0.132000
     45 H26C        -2.2040     3.6730    15.4700 ha         1 PRC       0.118000
     46 H27C        -0.3720     2.0270    15.5080 h4         1 PRC      -0.019900
     47 H29C        -1.1930     0.8290    11.6160 h4         1 PRC      -0.022900
@<TRIPOS>BOND
     1     1     2 ar  
     2     1     6 ar  
     3     1    30 1   
     4     2     3 ar  
     5     2    31 1   
     6     3     4 ar  
     7     4     5 ar  
     8     4    32 1   
     9     5     6 ar  
    10     5     7 1   
    11     6    33 1   
    12     7     8 ar  
    13     7    12 ar  
    14     8     9 ar  
    15     9    10 ar  
    16     9    13 1   
    17    10    11 ar  
    18    11    12 ar  
    19    11    34 1   
    20    12    35 1   
    21    13    14 1   
    22    13    36 1   
    23    14    15 ar  
    24    14    19 ar  
    25    15    16 ar  
    26    15    37 1   
    27    16    17 ar  
    28    16    21 1   
    29    17    18 ar  
    30    17    38 1   
    31    18    19 ar  
    32    18    39 1   
    33    19    20 1   
    34    20    40 1   
    35    20    41 1   
    36    20    42 1   
    37    21    22 1   
    38    21    43 1   
    39    22    23 1   
    40    22    29 2   
    41    23    24 ar  
    42    23    28 ar  
    43    24    25 ar  
    44    24    44 1   
    45    25    26 ar  
    46    25    45 1   
    47    26    27 ar  
    48    26    46 1   
    49    27    28 ar  
    50    28    47 1   
@<TRIPOS>SUBSTRUCTURE
     1 PRC         1 TEMP              0 ****  ****    0 ROOT
