@<TRIPOS>MOLECULE
PRE
   24    24     1     0     0
SMALL
bcc


@<TRIPOS>ATOM
      1 C1          0.0690    0.1070   -0.1160 c3        1 PRE     -0.137600
      2 C2          1.3750   -0.5370    0.2030 c2        1 PRE     -0.049200
      3 C3          1.9420   -0.5260    1.4130 c2        1 PRE     -0.276200
      4 C4          1.3000    0.0990    2.6110 c3        1 PRE      0.247500
      5 O4          0.9740   -0.8940    3.5840 oh        1 PRE     -0.650800
      6 C5          0.0920    0.9040    2.2520 c2        1 PRE     -0.276200
      7 C6         -0.4640    0.8870    1.0370 c2        1 PRE     -0.049200
      8 C7          0.2840    1.0970   -1.3310 c         1 PRE      0.931600
      9 O71         1.1890    0.8230   -2.1660 o         1 PRE     -0.842300
     10 O72        -0.4700    2.1060   -1.4140 o         1 PRE     -0.842300
     11 C8         -0.9500   -0.9290   -0.5960 c3        1 PRE     -0.154400
     12 C1'        -1.3840   -2.0320    0.3290 c         1 PRE      0.479100
     13 O1'        -0.9770   -2.1850    1.4890 o         1 PRE     -0.612100
     14 C2'        -2.4100   -2.9950   -0.2930 c         1 PRE      0.844600
     15 O'L        -1.9720   -4.0060   -0.9100 o         1 PRE     -0.837300
     16 O'M        -3.6350   -2.7200   -0.1560 o         1 PRE     -0.837300
     17 H2          1.8710   -0.9980   -0.6680 ha        1 PRE      0.132000
     18 H3          2.9080   -1.0120    1.6050 ha        1 PRE      0.093000
     19 H4          2.0500    0.7530    3.1480 h1        1 PRE      0.023700
     20 HO4         0.3280   -1.4820    3.1630 ho        1 PRE      0.435000
     21 H5         -0.3320    1.4950    3.0750 ha        1 PRE      0.093000
     22 H6         -1.3510    1.4950    0.7940 ha        1 PRE      0.132000
     23 H81        -0.5320   -1.4230   -1.5160 hc        1 PRE      0.076700
     24 H82        -1.8820   -0.3790   -0.9030 hc        1 PRE      0.076700
@<TRIPOS>BOND
     1    1    2 1   
     2    1    7 1   
     3    1    8 1   
     4    1   11 1   
     5    2    3 2   
     6    2   17 1   
     7    3    4 1   
     8    3   18 1   
     9    4    5 1   
    10    4    6 1   
    11    4   19 1   
    12    5   20 1   
    13    6    7 2   
    14    6   21 1   
    15    7   22 1   
    16    8    9 1   
    17    8   10 1   
    18   11   12 1   
    19   11   23 1   
    20   11   24 1   
    21   12   13 2   
    22   12   14 1   
    23   14   15 1   
    24   14   16 1   
@<TRIPOS>SUBSTRUCTURE
     1 PRE         1 TEMP              0 ****  ****    0 ROOT
