@<TRIPOS>MOLECULE
molecule
   24    24     1     0     0
SMALL
bcc


@<TRIPOS>ATOM
      1 C1           0.0000     0.0000     0.0000 c3         1 PRE      -0.119600
      2 C2           1.4990     0.0000     0.0000 c2         1 PRE      -0.019700
      3 C3           2.2020     0.0000     1.0910 c2         1 PRE      -0.278200
      4 C4           1.5850    -0.0020     2.4550 c3         1 PRE       0.250500
      5 O4           1.6250    -1.3280     2.9870 oh         1 PRE      -0.602800
      6 C5           0.1620     0.4650     2.4070 c2         1 PRE      -0.278200
      7 C6          -0.5420     0.4660     1.3170 c2         1 PRE      -0.019700
      8 C7          -0.4940     0.9170    -1.0890 c          1 PRE       0.913600
      9 O71         -1.1850     0.4820    -1.9780 o          1 PRE      -0.844300
     10 O72         -0.1650     2.2180    -1.0710 o          1 PRE      -0.844300
     11 C8          -0.5000    -1.4190    -0.2750 c3         1 PRE      -0.139400
     12 C1'         -2.0070    -1.4280    -0.2780 c          1 PRE       0.492100
     13 O1'         -2.6170    -0.4050    -0.0790 o          1 PRE      -0.527100
     14 C2'         -2.7450    -2.6990    -0.5240 c          1 PRE       0.815600
     15 O'L         -2.1320    -3.7270    -0.7220 o          1 PRE      -0.847800
     16 O'M         -4.0900    -2.7080    -0.5260 o          1 PRE      -0.847800
     17 H2           2.0270    -0.1600    -0.9330 ha         1 PRE       0.128500
     18 H3           3.2830     0.0000     1.0110 ha         1 PRE       0.086000
     19 H4           2.1510     0.6600     3.0990 h1         1 PRE      -0.006300
     20 HO4          2.1440    -1.3350     3.7740 ho         1 PRE       0.361000
     21 H5          -0.3590     0.6670     3.3350 ha         1 PRE       0.086000
     22 H6          -1.5650     0.8190     1.3600 ha         1 PRE       0.128500
     23 H81         -0.1370    -2.0860     0.4970 hc         1 PRE       0.056700
     24 H82         -0.1350    -1.7500    -1.2400 hc         1 PRE       0.056700
@<TRIPOS>BOND
     1     1     2 1
     2     1     7 1
     3     1     8 1
     4     1    11 1
     5     2     3 2
     6     2    17 1
     7     3     4 1
     8     3    18 1
     9     4     5 1
    10     4     6 1
    11     4    19 1
    12     5    20 1
    13     6     7 2
    14     6    21 1
    15     7    22 1
    16     8     9 1
    17     8    10 1
    18    11    12 1
    19    11    23 1
    20    11    24 1
    21    12    13 2
    22    12    14 1
    23    14    15 1
    24    14    16 1
@<TRIPOS>SUBSTRUCTURE
     1 PRE         1 TEMP              0 ****  ****    0 ROOT
