@<TRIPOS>MOLECULE
PRF
   24    25     1     0     0
SMALL
bcc


@<TRIPOS>ATOM
      1 N1           0.0000     0.0000     0.0000 ns         1 PRF       0.023600
      2 C2           1.3630     0.0000     0.0000 cc         1 PRF       0.053800
      3 N3           2.0600     0.0000     1.1130 nd         1 PRF      -0.374100
      4 C4           1.4580    -0.0020     2.3110 cd         1 PRF      -0.082900
      5 C5           0.0590    -0.0090     2.3700 cc         1 PRF      -0.193600
      6 C6          -0.6810    -0.0020     1.1680 c          1 PRF       0.642100
      7 O6          -1.9000    -0.0030     1.1830 o          1 PRF      -0.594500
      8 C7          -0.2920    -0.0060     3.7900 cc         1 PRF      -0.151300
      9 C10         -1.6810    -0.0070     4.3740 c3         1 PRF       0.071100
     10 N11         -1.5950    -0.0100     5.8410 nz         1 PRF       0.079400
     11 C8           0.8640    -0.0060     4.4730 cd         1 PRF      -0.278300
     12 N9           1.9190    -0.0050     3.5940 na         1 PRF       0.511900
     13 N2           2.0270     0.0010    -1.2000 nz         1 PRF       0.199400
     14 H91         -0.4990     0.0000    -0.8680 hn         1 PRF       0.204500
     15 H101        -2.2120    -0.8910     4.0410 hx         1 PRF       0.099700
     16 H102        -2.2120     0.8780     4.0450 hx         1 PRF       0.099700
     17 H111        -1.1050     0.8070     6.1480 hn         1 PRF       0.230467
     18 H112        -1.1040    -0.8270     6.1440 hn         1 PRF       0.230467
     19 H81          0.9510    -0.0070     5.5530 h4         1 PRF       0.153000
     20 HN91         2.8840    -0.0040     3.8560 hn         1 PRF       0.146700
     21 HN21         3.0140     0.0010    -1.0350 hn         1 PRF       0.232800
     22 HN22         1.7760     0.8190    -1.7200 hn         1 PRF       0.232800
     23 H113        -2.5170    -0.0390     6.2290 hn         1 PRF       0.230467
     24 H23          1.8270    -0.8460    -1.6930 hn         1 PRF       0.232800
@<TRIPOS>BOND
     1     1     2 1   
     2     1     6 1   
     3     1    14 1   
     4     2     3 2   
     5     2    13 1   
     6     3     4 1   
     7     4     5 2   
     8     4    12 1   
     9     5     6 1   
    10     5     8 1   
    11     6     7 2   
    12     8     9 1   
    13     8    11 2   
    14     9    10 1   
    15     9    15 1   
    16     9    16 1   
    17    10    17 1   
    18    10    18 1   
    19    10    23 1   
    20    11    12 1   
    21    11    19 1   
    22    12    20 1   
    23    13    21 1   
    24    13    22 1   
    25    13    24 1   
@<TRIPOS>SUBSTRUCTURE
     1 PRF         1 TEMP              0 ****  ****    0 ROOT
