@<TRIPOS>MOLECULE
molecule
   34    36     1     0     0
SMALL
bcc


@<TRIPOS>ATOM
      1 N1           0.0000     0.0000     0.0000 nu         1 PRH      -0.909200
      2 C2           1.3700     0.0000     0.0000 c2         1 PRH       0.742100
      3 N3           2.0630     0.0000     1.1080 ne         1 PRH      -0.640100
      4 C4           1.3920    -0.0360     2.2950 cc         1 PRH       0.240100
      5 C5           0.0530    -0.3320     2.3640 cd         1 PRH      -0.249600
      6 C6          -0.7430    -0.6200     1.1130 c3         1 PRH       0.530600
      7 O6          -0.8460    -2.0300     0.9110 oh         1 PRH      -0.586800
      8 N7          -0.3150    -0.2990     3.6360 na         1 PRH      -0.046100
      9 C8           0.7230    -0.0020     4.3800 cc         1 PRH      -0.033600
     10 N9           1.8120     0.1670     3.5750 na         1 PRH      -0.003100
     11 C1'          3.1700     0.5080     4.0060 c3         1 PRH       0.244800
     12 C2'          3.3710     2.0440     4.0250 c3         1 PRH       0.093100
     13 O2'          3.7640     2.5230     2.7360 oh         1 PRH      -0.554800
     14 C3'          4.5240     2.2090     5.0500 c3         1 PRH       0.096100
     15 O3'          5.7770     2.3410     4.3760 oh         1 PRH      -0.561800
     16 C4'          4.4800     0.9060     5.8720 c3         1 PRH       0.122100
     17 O4'          3.3790     0.1230     5.3810 os         1 PRH      -0.404600
     18 C5'          4.2660     1.2320     7.3520 c3         1 PRH       0.142400
     19 O5'          4.3370     0.0290     8.1200 oh         1 PRH      -0.593800
     20 HN1         -0.4990     0.4220    -0.7580 hn         1 PRH       0.471800
     21 H2           1.8950     0.0000    -0.9480 h5         1 PRH       0.088800
     22 H6          -1.7290    -0.1780     1.1920 h2         1 PRH       0.071700
     23 HO6         -1.7130    -2.2420     0.6070 ho         1 PRH       0.431000
     24 HN7         -1.2400    -0.4730     3.9760 hn         1 PRH       0.350700
     25 H8           0.7170     0.0940     5.4590 h5         1 PRH       0.259000
     26 H1'          3.9080     0.0380     3.3660 h2         1 PRH       0.148700
     27 H2'          2.4750     2.5430     4.3730 h1         1 PRH       0.052700
     28 HO2'         3.4320     3.3970     2.6110 ho         1 PRH       0.418000
     29 H3'          4.3390     3.0630     5.6890 h1         1 PRH       0.060700
     30 HO3'         6.2270     3.1060     4.6960 ho         1 PRH       0.421000
     31 H4'          5.4060     0.3580     5.7410 h1         1 PRH       0.107700
     32 H5'1         5.0350     1.9190     7.6850 h1         1 PRH       0.035200
     33 H5'2         3.2930     1.6880     7.4840 h1         1 PRH       0.035200
     34 HO5'         4.4300     0.2440     9.0330 ho         1 PRH       0.419000
@<TRIPOS>BOND
     1     1     2 1
     2     1     6 1
     3     1    20 1
     4     2     3 2
     5     2    21 1
     6     3     4 1
     7     4     5 2
     8     4    10 1
     9     5     6 1
    10     5     8 1
    11     6     7 1
    12     6    22 1
    13     7    23 1
    14     8     9 2
    15     8    24 1
    16     9    10 1
    17     9    25 1
    18    10    11 1
    19    11    12 1
    20    11    17 1
    21    11    26 1
    22    12    13 1
    23    12    14 1
    24    12    27 1
    25    13    28 1
    26    14    15 1
    27    14    16 1
    28    14    29 1
    29    15    30 1
    30    16    17 1
    31    16    18 1
    32    16    31 1
    33    18    19 1
    34    18    32 1
    35    18    33 1
    36    19    34 1
@<TRIPOS>SUBSTRUCTURE
     1 PRH         1 TEMP              0 ****  ****    0 ROOT
