@<TRIPOS>MOLECULE
PRI
   16    16     1     0     0
SMALL
bcc


@<TRIPOS>ATOM
      1 CB           0.0000     0.0000     0.0000 c3         1 PRI      -0.009400
      2 CG           1.5420     0.0000     0.0000 c3         1 PRI      -0.025400
      3 C           -1.6200    -0.8560     1.7070 c          1 PRI       0.651900
      4 OT1         -1.5590    -1.8250     2.4240 o          1 PRI      -0.530100
      5 N            0.7700    -0.5790     2.1960 n7         1 PRI      -0.548200
      6 CD           1.9440     0.0000     1.4900 c3         1 PRI       0.139800
      7 CA          -0.4000     0.0000     1.4900 c3         1 PRI      -0.015500
      8 HCB1        -0.3750    -0.8910    -0.4890 hc         1 PRI       0.019200
      9 HCB2        -0.3750     0.8910    -0.4890 hc         1 PRI       0.019200
     10 HCG1         1.9170    -0.8910    -0.4890 hc         1 PRI       0.019700
     11 HCG2         1.9170     0.8910    -0.4890 hc         1 PRI       0.019700
     12 HO'T        -2.5580    -0.5920     1.2330 h4         1 PRI      -0.042800
     13 HN           0.7700    -0.2730     3.1490 hn         1 PRI       0.255800
     14 HCD1         2.1260     1.0120     1.8300 h1         1 PRI       0.010200
     15 HCD2         2.8180    -0.6200     1.6440 h1         1 PRI       0.010200
     16 HCA         -0.5790     1.0130     1.8300 h1         1 PRI       0.023700
@<TRIPOS>BOND
     1     1     2 1   
     2     1     7 1   
     3     1     8 1   
     4     1     9 1   
     5     2     6 1   
     6     2    10 1   
     7     2    11 1   
     8     3     4 2   
     9     3     7 1   
    10     3    12 1   
    11     5     6 1   
    12     5     7 1   
    13     5    13 1   
    14     6    14 1   
    15     6    15 1   
    16     7    16 1   
@<TRIPOS>SUBSTRUCTURE
     1 PRI         1 TEMP              0 ****  ****    0 ROOT
