@<TRIPOS>MOLECULE
molecule
   27    29     1     0     0
SMALL
bcc


@<TRIPOS>ATOM
      1 C1           0.0000     0.0000     0.0000 ca         1 PRL      -0.083500
      2 C2           1.3560     0.0000     0.0000 ca         1 PRL      -0.166500
      3 C3           2.0890     0.0000     1.1940 ca         1 PRL       0.200600
      4 C4           1.4640    -0.0060     2.4190 ca         1 PRL      -0.246800
      5 C5          -2.5520    -0.0040     4.9750 ca         1 PRL      -0.246800
      6 C6          -3.9270    -0.0040     5.0220 ca         1 PRL       0.200600
      7 C7          -4.6980    -0.0030     3.8530 ca         1 PRL      -0.166500
      8 C8          -4.1240    -0.0020     2.6240 ca         1 PRL      -0.083500
      9 C9          -2.0950    -0.0010     1.2600 ca         1 PRL      -0.046000
     10 N10         -0.5730    -0.0030     3.6520 nb         1 PRL      -0.700000
     11 C11          0.0570    -0.0020     2.4800 ca         1 PRL       0.471600
     12 C12         -2.7180    -0.0020     2.5090 ca         1 PRL      -0.193800
     13 C13         -0.7000    -0.0010     1.2250 ca         1 PRL      -0.193800
     14 C14         -1.9010    -0.0030     3.7260 ca         1 PRL       0.471600
     15 N15          3.4800     0.0010     1.1400 nv         1 PRL      -0.953700
     16 N16         -4.5650    -0.0040     6.2600 nv         1 PRL      -0.953700
     17 H1          -0.5440    -0.0000    -0.9370 ha         1 PRL       0.131500
     18 H2           1.8850     0.0050    -0.9450 ha         1 PRL       0.130500
     19 H4           2.0490    -0.0060     3.3310 ha         1 PRL       0.152500
     20 H5          -1.9750    -0.0050     5.8910 ha         1 PRL       0.152500
     21 H7          -5.7790    -0.0030     3.9320 ha         1 PRL       0.130500
     22 H8          -4.7420    -0.0010     1.7350 ha         1 PRL       0.131500
     23 H9          -2.6590     0.2650     0.3740 ha         1 PRL       0.138000
     24 HNF1         3.9810    -0.8650     1.1240 hn         1 PRL       0.430300
     25 HNF2         3.9800     0.8680     1.1270 hn         1 PRL       0.430300
     26 HNG1        -4.0240    -0.0050     7.1020 hn         1 PRL       0.430300
     27 HNG2        -5.5650    -0.0040     6.3070 hn         1 PRL       0.430300
@<TRIPOS>BOND
     1     1     2 ar
     2     1    13 ar
     3     1    17 1
     4     2     3 ar
     5     2    18 1
     6     3     4 ar
     7     3    15 1
     8     4    11 ar
     9     4    19 1
    10     5     6 ar
    11     5    14 ar
    12     5    20 1
    13     6     7 ar
    14     6    16 1
    15     7     8 ar
    16     7    21 1
    17     8    12 ar
    18     8    22 1
    19     9    12 ar
    20     9    13 ar
    21     9    23 1
    22    10    11 ar
    23    10    14 ar
    24    11    13 ar
    25    12    14 ar
    26    15    24 1
    27    15    25 1
    28    16    26 1
    29    16    27 1
@<TRIPOS>SUBSTRUCTURE
     1 PRL         1 TEMP              0 ****  ****    0 ROOT
