@<TRIPOS>MOLECULE
molecule
   65    68     1     0     0
SMALL
bcc


@<TRIPOS>ATOM
      1 C16          0.0000     0.0000     0.0000 ca         1 PRM      -0.129000
      2 C17          1.3940     0.0000     0.0000 ca         1 PRM       0.035000
      3 C18          2.1010     0.0000     1.2250 ca         1 PRM      -0.107000
      4 C19          1.3920    -0.0010     2.4270 ca         1 PRM      -0.094000
      5 C20          0.0090    -0.0020     2.4000 ca         1 PRM       0.191600
      6 C21         -0.6780    -0.0020     1.1860 ca         1 PRM      -0.055000
      7 C22          3.5650    -0.0040     1.1880 cp         1 PRM       0.174700
      8 N23          4.2070     0.0030     0.0430 na         1 PRM       0.041900
      9 C24          3.5910     0.0030    -1.1480 ca         1 PRM       0.011700
     10 C25          2.1790     0.0020    -1.2390 ca         1 PRM      -0.076000
     11 C26          4.3450     0.0050    -2.3320 ca         1 PRM      -0.278000
     12 C27          3.7030     0.0050    -3.5540 ca         1 PRM       0.261600
     13 C28          2.3090     0.0040    -3.6260 ca         1 PRM      -0.155000
     14 C29          1.5560     0.0020    -2.4890 ca         1 PRM      -0.038000
     15 C30          4.3300    -0.0110     2.4560 cp         1 PRM      -0.146000
     16 C31          4.1680    -1.0570     3.3650 ca         1 PRM      -0.106000
     17 C32          4.8830    -1.0570     4.5460 ca         1 PRM      -0.119000
     18 C33          5.7600    -0.0240     4.8270 ca         1 PRM      -0.079000
     19 C34          5.9240     1.0160     3.9300 ca         1 PRM      -0.119000
     20 C35          5.2190     1.0240     2.7430 ca         1 PRM      -0.106000
     21 N36         -0.7060    -0.0030     3.6000 nv         1 PRM      -0.987200
     22 N37          4.4560     0.0080    -4.7300 nv         1 PRM      -0.884200
     23 C41          5.6720     0.0040     0.0670 c3         1 PRM      -0.010700
     24 C42          6.1850    -1.4330    -0.0420 c3         1 PRM      -0.133400
     25 C43          7.7150    -1.4320    -0.0170 c3         1 PRM       0.105800
     26 N44          8.2070    -2.8130    -0.1230 n4         1 PRM      -0.573800
     27 C44          9.6760    -2.8110    -0.0980 c3         1 PRM       0.096300
     28 C45         10.1890    -4.2480    -0.2080 c3         1 PRM      -0.121100
     29 C46          7.7400    -3.4040    -1.3830 c3         1 PRM       0.086100
     30 C47          7.6990    -3.6010     1.0080 c3         1 PRM       0.096300
     31 C48          8.1870    -2.9850     2.3210 c3         1 PRM      -0.121100
     32 H16         -0.5440     0.0000    -0.9370 ha         1 PRM       0.162000
     33 H19          1.9200    -0.0020     3.3730 ha         1 PRM       0.166000
     34 H21         -1.7610    -0.0020     1.1830 ha         1 PRM       0.175000
     35 H26          5.4270     0.0060    -2.2870 ha         1 PRM       0.131000
     36 H28          1.8220     0.0050    -4.5940 ha         1 PRM       0.170000
     37 H29          0.4750     0.0010    -2.5550 ha         1 PRM       0.170000
     38 H31          3.4820    -1.8660     3.1460 ha         1 PRM       0.149000
     39 H32          4.7580    -1.8680     5.2530 ha         1 PRM       0.164500
     40 H33          6.3170    -0.0270     5.7560 ha         1 PRM       0.166000
     41 H34          6.6130     1.8210     4.1550 ha         1 PRM       0.164500
     42 H35          5.3480     1.8390     2.0420 ha         1 PRM       0.149000
     43 H361        -1.0030    -0.8690     4.0040 hn         1 PRM       0.452300
     44 H362        -0.9530     0.8630     4.0360 hn         1 PRM       0.452300
     45 H371         3.9960    -0.0150    -5.6190 hn         1 PRM       0.451300
     46 H372         5.4550     0.0660    -4.6850 hn         1 PRM       0.451300
     47 H411         6.0460     0.5860    -0.7660 h1         1 PRM       0.106200
     48 H412         6.0170     0.4410     0.9960 h1         1 PRM       0.106200
     49 H421         5.8400    -1.8700    -0.9720 hc         1 PRM       0.080200
     50 H422         5.8100    -2.0150     0.7910 hc         1 PRM       0.080200
     51 H431         8.0900    -0.8500    -0.8500 hx         1 PRM       0.106700
     52 H432         8.0600    -0.9960     0.9120 hx         1 PRM       0.106700
     53 H441        10.0510    -2.2290    -0.9310 hx         1 PRM       0.105200
     54 H442        10.0220    -2.3740     0.8310 hx         1 PRM       0.105200
     55 H451        10.6770    -4.3860    -1.1650 hc         1 PRM       0.075200
     56 H452        10.8980    -4.4400     0.5890 hc         1 PRM       0.075200
     57 H453         9.3570    -4.9360    -0.1240 hc         1 PRM       0.075200
     58 H461         7.8780    -2.6930    -2.1890 hx         1 PRM       0.101367
     59 H462         8.3070    -4.3030    -1.5920 hx         1 PRM       0.101367
     60 H463         6.6880    -3.6520    -1.2970 hx         1 PRM       0.101367
     61 H471         6.6160    -3.6020     0.9900 hx         1 PRM       0.105200
     62 H472         8.0620    -4.6190     0.9300 hx         1 PRM       0.105200
     63 H481         8.4900    -1.9600     2.1480 hc         1 PRM       0.075200
     64 H482         7.3850    -3.0070     3.0490 hc         1 PRM       0.075200
     65 H483         9.0300    -3.5530     2.6950 hc         1 PRM       0.075200
@<TRIPOS>BOND
     1     1     2 ar
     2     1     6 ar
     3     1    32 1
     4     2     3 ar
     5     2    10 ar
     6     3     4 ar
     7     3     7 ar
     8     4     5 ar
     9     4    33 1
    10     5     6 ar
    11     5    21 1
    12     6    34 1
    13     7     8 1
    14     7    15 1
    15     8     9 2
    16     8    23 1
    17     9    10 ar
    18     9    11 ar
    19    10    14 ar
    20    11    12 ar
    21    11    35 1
    22    12    13 ar
    23    12    22 1
    24    13    14 ar
    25    13    36 1
    26    14    37 1
    27    15    16 ar
    28    15    20 ar
    29    16    17 ar
    30    16    38 1
    31    17    18 ar
    32    17    39 1
    33    18    19 ar
    34    18    40 1
    35    19    20 ar
    36    19    41 1
    37    20    42 1
    38    21    43 1
    39    21    44 1
    40    22    45 1
    41    22    46 1
    42    23    24 1
    43    23    47 1
    44    23    48 1
    45    24    25 1
    46    24    49 1
    47    24    50 1
    48    25    26 1
    49    25    51 1
    50    25    52 1
    51    26    27 1
    52    26    29 1
    53    26    30 1
    54    27    28 1
    55    27    53 1
    56    27    54 1
    57    28    55 1
    58    28    56 1
    59    28    57 1
    60    29    58 1
    61    29    59 1
    62    29    60 1
    63    30    31 1
    64    30    61 1
    65    30    62 1
    66    31    63 1
    67    31    64 1
    68    31    65 1
@<TRIPOS>SUBSTRUCTURE
     1 PRM         1 TEMP              0 ****  ****    0 ROOT
