@<TRIPOS>MOLECULE
molecule
   34    33     1     0     0
SMALL
bcc


@<TRIPOS>ATOM
      1 O42          0.0000     0.0000     0.0000 o          1 PRU      -0.916800
      2 O41          1.8800     0.0010    -1.1620 o          1 PRU      -0.916800
      3 C4           1.2080     0.0000     0.0000 c          1 PRU       0.898600
      4 C41          1.9610     0.0000     1.3060 c3         1 PRU      -0.176400
      5 C32          0.9660    -0.0010     2.4680 c3         1 PRU      -0.033400
      6 C3           2.5000     1.2860     3.9290 c          1 PRU       0.901600
      7 O31          3.2500     1.5090     5.0210 o          1 PRU      -0.889300
      8 O32          2.4440     2.1190     3.0560 o          1 PRU      -0.889300
      9 C22          0.7400    -0.1290     4.9530 c3         1 PRU      -0.018400
     10 C2           2.2940    -1.5420     6.2720 c          1 PRU       0.926600
     11 O21          2.2430    -2.2820     5.3180 o          1 PRU      -0.898300
     12 O22          3.0490    -1.8650     7.3330 o          1 PRU      -0.898300
     13 C10          2.0800     1.0520     8.8910 c3         1 PRU      -0.057100
     14 C11          1.2970    -0.2570     8.7590 c3         1 PRU      -0.181700
     15 C12          0.5230    -0.2560     7.4390 c3         1 PRU      -0.026400
     16 C1           0.3300    -0.3810     9.9080 c          1 PRU       0.902600
     17 O12         -0.8560    -0.4630     9.6930 o          1 PRU      -0.917800
     18 O11          0.7870    -0.4030    11.1700 o          1 PRU      -0.917800
     19 C21          1.5100    -0.2540     6.2690 c3         1 PRU      -0.196700
     20 C31          1.7300    -0.0010     3.7930 c3         1 PRU      -0.177700
     21 H2           2.5840    -0.8840     1.3630 hc         1 PRU       0.045700
     22 H3           2.5840     0.8850     1.3640 hc         1 PRU       0.045700
     23 H4           0.3430     0.8840     2.4100 hc         1 PRU       0.013700
     24 H5           0.3440    -0.8850     2.4090 hc         1 PRU       0.013700
     25 H7           0.1080     0.7500     4.9860 hc         1 PRU      -0.004800
     26 H8           0.1260    -1.0100     4.8080 hc         1 PRU      -0.004800
     27 H12          1.8180     1.5360     9.8240 hc         1 PRU       0.008700
     28 H13          1.9860    -1.0930     8.7740 hc         1 PRU       0.125700
     29 H14         -0.0990    -1.1410     7.3840 hc         1 PRU       0.004700
     30 H15         -0.1000     0.6280     7.3860 hc         1 PRU       0.004700
     31 H17          2.1900     0.5830     6.3710 hc         1 PRU       0.123700
     32 H18          2.4190    -0.8370     3.8130 hc         1 PRU       0.089700
     33 H10          1.8340     1.7050     8.0630 hc         1 PRU       0.008700
     34 H11          3.1420     0.8390     8.8810 hc         1 PRU       0.008700
@<TRIPOS>BOND
     1     1     3 1
     2    11    10 1
     3     8     6 1
     4     3     2 1
     5     3     4 1
     6    10    12 1
     7    10    19 1
     8     6     7 1
     9     6    20 1
    10     9    19 1
    11     9    20 1
    12     4     5 1
    13    19    15 1
    14     5    20 1
    15    15    14 1
    16    14    16 1
    17    14    13 1
    18    16    17 1
    19    16    18 1
    20     4    21 1
    21     4    22 1
    22     5    23 1
    23     5    24 1
    24     9    25 1
    25     9    26 1
    26    13    33 1
    27    13    34 1
    28    13    27 1
    29    14    28 1
    30    15    29 1
    31    15    30 1
    32    19    31 1
    33    20    32 1
@<TRIPOS>SUBSTRUCTURE
     1 PRU         1 TEMP              0 ****  ****    0 ROOT
