@<TRIPOS>MOLECULE
PRU
   34    33     1     0     0
SMALL
bcc


@<TRIPOS>ATOM
      1 O42         0.7900   -0.3860   -0.4340 o         1 PRU     -0.908800
      2 O41         2.9550   -0.5740   -0.8020 o         1 PRU     -0.908800
      3 C4          1.9860   -0.3030   -0.0120 c         1 PRU      0.899600
      4 C41         2.3220    0.1570    1.4040 c3        1 PRU     -0.164400
      5 C32         1.2680   -0.1010    2.4600 c3        1 PRU     -0.040400
      6 C3          1.7060    1.9400    3.8510 c         1 PRU      0.916600
      7 O31         2.8340    2.5310    3.8960 o         1 PRU     -0.896800
      8 O32         0.6300    2.6130    3.7840 o         1 PRU     -0.896800
      9 C22         0.7220   -0.1530    4.9200 c3        1 PRU     -0.050400
     10 C2          1.5700   -2.1270    6.2880 c         1 PRU      0.916600
     11 O21         0.6030   -2.9160    6.0450 o         1 PRU     -0.895800
     12 O22         2.7170   -2.5860    6.5980 o         1 PRU     -0.895800
     13 C10         2.3330    0.8260    8.8680 c3        1 PRU     -0.061100
     14 C11         1.2410   -0.2210    8.7760 c3        1 PRU     -0.157700
     15 C12         0.5230   -0.1550    7.4340 c3        1 PRU     -0.037400
     16 C1          0.3180   -0.0550    9.9970 c         1 PRU      0.906600
     17 O12        -0.8900    0.3190    9.8860 o         1 PRU     -0.902300
     18 O11         0.8060   -0.2920   11.1550 o         1 PRU     -0.902300
     19 C21         1.3700   -0.5980    6.2350 c3        1 PRU     -0.159700
     20 C31         1.6720    0.3980    3.8520 c3        1 PRU     -0.158700
     21 H2          2.5230    1.2610    1.3610 hc        1 PRU      0.029700
     22 H3          3.2810   -0.3390    1.7080 hc        1 PRU      0.029700
     23 H4          1.0660   -1.2040    2.5050 hc        1 PRU      0.025700
     24 H5          0.3130    0.4020    2.1550 hc        1 PRU      0.025700
     25 H7          0.1660   -1.0360    4.5040 hc        1 PRU      0.031200
     26 H8         -0.0430    0.6430    5.1290 hc        1 PRU      0.031200
     27 H12         3.1310    0.6300    8.1120 hc        1 PRU      0.008033
     28 H13         1.7160   -1.2390    8.8590 hc        1 PRU      0.059700
     29 H14        -0.3870   -0.8080    7.4900 hc        1 PRU      0.030200
     30 H15         0.1700    0.8980    7.2740 hc        1 PRU      0.030200
     31 H17         2.3850   -0.1230    6.3160 hc        1 PRU      0.039700
     32 H18         2.7140    0.0360    4.0660 hc        1 PRU      0.038700
     33 H10         1.9150    1.8450    8.6830 hc        1 PRU      0.008033
     34 H11         2.7910    0.8100    9.8880 hc        1 PRU      0.008033
@<TRIPOS>BOND
     1    1    3 1   
     2    2    3 1   
     3    3    4 1   
     4    4    5 1   
     5    4   21 1   
     6    4   22 1   
     7    5   20 1   
     8    5   23 1   
     9    5   24 1   
    10    6    7 1   
    11    6    8 1   
    12    6   20 1   
    13    9   19 1   
    14    9   20 1   
    15    9   25 1   
    16    9   26 1   
    17   10   11 1   
    18   10   12 1   
    19   10   19 1   
    20   13   14 1   
    21   13   27 1   
    22   13   33 1   
    23   13   34 1   
    24   14   15 1   
    25   14   16 1   
    26   14   28 1   
    27   15   19 1   
    28   15   29 1   
    29   15   30 1   
    30   16   17 1   
    31   16   18 1   
    32   19   31 1   
    33   20   32 1   
@<TRIPOS>SUBSTRUCTURE
     1 PRU         1 TEMP              0 ****  ****    0 ROOT
