@<TRIPOS>MOLECULE
PRW
   17    16     1     0     0
SMALL
bcc


@<TRIPOS>ATOM
      1 O7          0.1780   -0.1300   -0.1230 o         1 PRW     -0.831300
      2 C5          1.4330    0.0090   -0.0810 c         1 PRW      0.891600
      3 C4          2.0940   -0.0160    1.3200 c3        1 PRW     -0.014900
      4 O6          1.1420   -0.2210    2.3480 oh        1 PRW     -0.639800
      5 C3          2.8440    1.2980    1.5810 c3        1 PRW      0.113100
      6 O8          3.9620    1.4460    0.7190 oh        1 PRW     -0.656800
      7 C2          3.3860    1.3420    3.0240 c3        1 PRW      0.142800
      8 N1          4.1120    2.5340    3.3920 n3        1 PRW     -0.901800
      9 OXT         2.1790    0.1700   -1.0880 o         1 PRW     -0.831300
     10 H4          2.8190   -0.8730    1.3740 h1        1 PRW      0.046700
     11 H6          0.2630   -0.1730    1.9340 ho        1 PRW      0.427000
     12 H3          2.1410    2.1620    1.4100 h1        1 PRW      0.023700
     13 H8          3.6920    1.1270   -0.1600 ho        1 PRW      0.453000
     14 H21C        2.5060    1.2220    3.7160 h1        1 PRW      0.055700
     15 H22C        4.0700    0.4600    3.1690 h1        1 PRW      0.055700
     16 H11N        4.9140    2.6300    2.7940 hn        1 PRW      0.333300
     17 H12N        3.5340    3.3410    3.2450 hn        1 PRW      0.333300
@<TRIPOS>BOND
     1    1    2 1   
     2    2    3 1   
     3    2    9 1   
     4    3    4 1   
     5    3    5 1   
     6    3   10 1   
     7    4   11 1   
     8    5    6 1   
     9    5    7 1   
    10    5   12 1   
    11    6   13 1   
    12    7    8 1   
    13    7   14 1   
    14    7   15 1   
    15    8   16 1   
    16    8   17 1   
@<TRIPOS>SUBSTRUCTURE
     1 PRW         1 TEMP              0 ****  ****    0 ROOT
