@<TRIPOS>MOLECULE
molecule
   45    47     1     0     0
SMALL
bcc


@<TRIPOS>ATOM
      1 O2'          0.0000     0.0000     0.0000 oh         1 PRX      -0.566800
      2 C2'          1.4290     0.0000     0.0000 c3         1 PRX       0.094100
      3 C1'          1.9700     0.0000     1.4460 c3         1 PRX       0.250800
      4 O4'          3.1390    -0.8470     1.4020 os         1 PRX      -0.388600
      5 C4'          2.7750    -1.9540     0.5490 c3         1 PRX       0.113100
      6 C5'          4.0290    -2.6430     0.0070 c3         1 PRX       0.238400
      7 O5'          4.7360    -3.2630     1.0830 os         1 PRX      -0.592200
      8 P            6.1060    -4.0820     0.8750 p5         1 PRX       1.369800
      9 O1P          7.0950    -3.2220     0.1880 o          1 PRX      -0.828500
     10 O2P          5.8200    -5.3900    -0.0180 o          1 PRX      -0.828500
     11 O3P          6.6870    -4.5270     2.3090 os         1 PRX      -0.606200
     12 C1P          7.9490    -5.1790     2.4690 c3         1 PRX       0.230400
     13 C2P          8.1940    -5.4600     3.9530 c3         1 PRX      -0.094400
     14 C3P          9.5430    -6.1590     4.1240 c3         1 PRX      -0.092100
     15 C3'          1.9700    -1.3150    -0.6040 c3         1 PRX       0.085100
     16 O3'          0.8920    -2.1670    -0.9950 oh         1 PRX      -0.578800
     17 N9           2.3400     1.3590     1.8520 na         1 PRX      -0.246000
     18 C8           3.5840     1.9110     1.7820 cc         1 PRX       0.451700
     19 N7           3.5540     3.1340     2.2260 nd         1 PRX      -0.603100
     20 C5           2.2910     3.4420     2.6080 ca         1 PRX      -0.193200
     21 C4           1.4970     2.3090     2.3680 ca         1 PRX       0.463800
     22 N3           0.2000     2.3570     2.6560 nb         1 PRX      -0.767000
     23 C2          -0.3370     3.4490     3.1580 ca         1 PRX       0.715900
     24 N1           0.3690     4.5400     3.3970 nb         1 PRX      -0.830000
     25 C6           1.6740     4.5840     3.1490 ca         1 PRX       0.774200
     26 N6           2.4040     5.7310     3.4020 nv         1 PRX      -1.011500
     27 H2'         -0.3140     0.4670    -0.7560 ho         1 PRX       0.401000
     28 H1           1.8140     0.8520    -0.5470 h1         1 PRX       0.049700
     29 H1'          1.2330    -0.4140     2.1230 h2         1 PRX       0.106700
     30 H4'          2.1570    -2.6590     1.0930 h1         1 PRX       0.084700
     31 H5'1         3.7420    -3.3950    -0.7180 h1         1 PRX       0.040700
     32 H5'2         4.6670    -1.9080    -0.4690 h1         1 PRX       0.040700
     33 H1P1         7.9450    -6.1140     1.9210 h1         1 PRX       0.028700
     34 H1P2         8.7370    -4.5400     2.0870 h1         1 PRX       0.028700
     35 H2P1         8.1990    -4.5250     4.5010 hc         1 PRX       0.042200
     36 H2P2         7.4060    -6.0970     4.3350 hc         1 PRX       0.042200
     37 H3P1         9.5370    -7.0930     3.5760 hc         1 PRX       0.025033
     38 H3P2         9.7160    -6.3570     5.1750 hc         1 PRX       0.025033
     39 H3P3        10.3310    -5.5210     3.7430 hc         1 PRX       0.025033
     40 H3'          2.6190    -1.1050    -1.4450 h1         1 PRX       0.051700
     41 H2           1.0690    -2.5260    -1.8490 ho         1 PRX       0.402000
     42 H8           4.4680     1.4060     1.4110 h5         1 PRX       0.102800
     43 H3          -1.3980     3.4560     3.3750 h5         1 PRX       0.055100
     44 HN61         1.9780     6.6300     3.2900 hn         1 PRX       0.443300
     45 HN62         3.3430     5.6620     3.7430 hn         1 PRX       0.443300
@<TRIPOS>BOND
     1     1     2 1
     2     1    27 1
     3     2     3 1
     4     2    15 1
     5     2    28 1
     6     3     4 1
     7     3    17 1
     8     3    29 1
     9     4     5 1
    10     5     6 1
    11     5    15 1
    12     5    30 1
    13     6     7 1
    14     6    31 1
    15     6    32 1
    16     7     8 1
    17     8     9 1
    18     8    10 1
    19     8    11 1
    20    11    12 1
    21    12    13 1
    22    12    33 1
    23    12    34 1
    24    13    14 1
    25    13    35 1
    26    13    36 1
    27    14    37 1
    28    14    38 1
    29    14    39 1
    30    15    16 1
    31    15    40 1
    32    16    41 1
    33    17    18 1
    34    17    21 1
    35    18    19 2
    36    18    42 1
    37    19    20 1
    38    20    21 ar
    39    20    25 ar
    40    21    22 ar
    41    22    23 ar
    42    23    24 ar
    43    23    43 1
    44    24    25 ar
    45    25    26 1
    46    26    44 1
    47    26    45 1
@<TRIPOS>SUBSTRUCTURE
     1 PRX         1 TEMP              0 ****  ****    0 ROOT
