@<TRIPOS>MOLECULE
molecule
   23    23     1     0     0
SMALL
bcc


@<TRIPOS>ATOM
      1 C1           0.0000     0.0000     0.0000 ca         1 PRY      -0.135300
      2 C2           1.3880     0.0000     0.0000 ca         1 PRY       0.190600
      3 C3          -0.6880    -0.0120     1.1980 ca         1 PRY      -0.097000
      4 C4          -0.7550     0.0050    -1.3030 c3         1 PRY      -0.024100
      5 C5           2.0800     0.0000     1.2050 ca         1 PRY      -0.182000
      6 N6           2.0870     0.0110    -1.2090 nv         1 PRY      -0.950200
      7 C7           0.0030    -0.0160     2.3950 ca         1 PRY      -0.165000
      8 C8           1.3870    -0.0110     2.3980 ca         1 PRY      -0.103000
      9 C9          -1.0160     1.4480    -1.7350 c3         1 PRY      -0.078400
     10 C10         -1.7840     1.4530    -3.0590 c3         1 PRY      -0.094100
     11 HC3         -1.7710    -0.0140     1.2000 ha         1 PRY       0.128000
     12 HC41        -1.6990    -0.5110    -1.1750 hc         1 PRY       0.042200
     13 HC42        -0.1680    -0.4990    -2.0620 hc         1 PRY       0.042200
     14 HC5          3.1640     0.0020     1.2070 ha         1 PRY       0.129000
     15 HN61         1.7980    -0.5850    -1.9590 hn         1 PRY       0.427800
     16 HN62         2.9040     0.5810    -1.3100 hn         1 PRY       0.427800
     17 HC7         -0.5390    -0.0250     3.3320 ha         1 PRY       0.127000
     18 HC8          1.9260    -0.0130     3.3370 ha         1 PRY       0.127000
     19 HC91        -0.0720     1.9640    -1.8630 hc         1 PRY       0.045700
     20 HC92        -1.6030     1.9520    -0.9760 hc         1 PRY       0.045700
     21 H101        -1.9690     2.4750    -3.3650 hc         1 PRY       0.032033
     22 H102        -2.7280     0.9380    -2.9300 hc         1 PRY       0.032033
     23 H103        -1.1980     0.9490    -3.8180 hc         1 PRY       0.032033
@<TRIPOS>BOND
     1     1     2 ar
     2     1     3 ar
     3     1     4 1
     4     2     5 ar
     5     2     6 1
     6     3     7 ar
     7     3    11 1
     8     4     9 1
     9     4    12 1
    10     4    13 1
    11     5     8 ar
    12     5    14 1
    13     6    15 1
    14     6    16 1
    15     7     8 ar
    16     7    17 1
    17     8    18 1
    18     9    10 1
    19     9    19 1
    20     9    20 1
    21    10    21 1
    22    10    22 1
    23    10    23 1
@<TRIPOS>SUBSTRUCTURE
     1 PRY         1 TEMP              0 ****  ****    0 ROOT
