@<TRIPOS>MOLECULE
molecule
   26    26     1     0     0
SMALL
bcc


@<TRIPOS>ATOM
      1 N1           0.0000     0.0000     0.0000 nb         1 PRZ      -0.627000
      2 C2           1.3190     0.0000     0.0000 ca         1 PRZ       0.301300
      3 C3           2.0140     0.0000     1.2040 ca         1 PRZ       0.518300
      4 N4           1.3480     0.0100     2.3490 nb         1 PRZ      -0.733000
      5 C5           0.0260     0.0150     2.3430 ca         1 PRZ       0.326900
      6 C6          -0.6620     0.0120     1.1450 ca         1 PRZ       0.256900
      7 C21          2.0720    -0.0120    -1.3060 c3         1 PRZ      -0.114700
      8 C22          2.3260     1.4250    -1.7610 c3         1 PRZ      -0.071700
      9 C23          3.0920     1.4140    -3.0860 c3         1 PRZ      -0.087100
     10 C24          0.9910     2.1450    -1.9500 c3         1 PRZ      -0.087100
     11 O31          3.3700    -0.0060     1.2060 os         1 PRZ      -0.408100
     12 C31          3.7810     0.0020     2.5740 c3         1 PRZ       0.115700
     13 H5          -0.5180     0.0240     3.2800 h4         1 PRZ       0.030100
     14 H6          -1.7450     0.0140     1.1430 h4         1 PRZ       0.032100
     15 H212         3.0180    -0.5220    -1.1720 hc         1 PRZ       0.063700
     16 H211         1.4860    -0.5300    -2.0550 hc         1 PRZ       0.063700
     17 H22          2.9120     1.9430    -1.0100 hc         1 PRZ       0.053700
     18 H233         2.4850     0.9430    -3.8500 hc         1 PRZ       0.035867
     19 H232         3.3180     2.4320    -3.3810 hc         1 PRZ       0.035867
     20 H231         4.0150     0.8600    -2.9650 hc         1 PRZ       0.035867
     21 H243         0.6200     2.4770    -0.9880 hc         1 PRZ       0.035867
     22 H242         1.1310     3.0020    -2.5970 hc         1 PRZ       0.035867
     23 H241         0.2750     1.4670    -2.3990 hc         1 PRZ       0.035867
     24 H313         3.3950    -0.8800     3.0720 h1         1 PRZ       0.050367
     25 H312         4.8630     0.0020     2.6270 h1         1 PRZ       0.050367
     26 H311         3.3950     0.8890     3.0620 h1         1 PRZ       0.050367
@<TRIPOS>BOND
     1     1     2 ar
     2     1     6 ar
     3     2     3 ar
     4     2     7 1
     5     3     4 ar
     6     3    11 1
     7     4     5 ar
     8     5     6 ar
     9     5    13 1
    10     6    14 1
    11     7     8 1
    12     7    15 1
    13     7    16 1
    14     8     9 1
    15     8    10 1
    16     8    17 1
    17     9    18 1
    18     9    19 1
    19     9    20 1
    20    10    21 1
    21    10    22 1
    22    10    23 1
    23    11    12 1
    24    12    24 1
    25    12    25 1
    26    12    26 1
@<TRIPOS>SUBSTRUCTURE
     1 PRZ         1 TEMP              0 ****  ****    0 ROOT
