@<TRIPOS>MOLECULE
PRZ
   26    26     1     0     0
SMALL
bcc


@<TRIPOS>ATOM
      1 N1         -0.2710   -0.1280    0.0490 nb        1 PRZ     -0.613000
      2 C2          1.0740   -0.0310    0.0090 ca        1 PRZ      0.300300
      3 C3          1.8230    0.0440    1.2430 ca        1 PRZ      0.509300
      4 N4          1.2310    0.0270    2.4640 nb        1 PRZ     -0.699000
      5 C5         -0.1140   -0.0660    2.4620 ca        1 PRZ      0.311900
      6 C6         -0.8590   -0.1450    1.2640 ca        1 PRZ      0.244900
      7 C21         1.8050   -0.0190   -1.2980 c3        1 PRZ     -0.117700
      8 C22         2.2770    1.3800   -1.6780 c3        1 PRZ     -0.063700
      9 C23         3.2920    1.2860   -2.8000 c3        1 PRZ     -0.090100
     10 C24         1.1190    2.2630   -2.0900 c3        1 PRZ     -0.090100
     11 O31         3.1890    0.1320    1.1000 os        1 PRZ     -0.438100
     12 C31         3.9770    0.1690    2.2920 c3        1 PRZ      0.122700
     13 H5         -0.6020   -0.0800    3.4510 h4        1 PRZ      0.033100
     14 H6         -1.9580   -0.2250    1.2730 h4        1 PRZ      0.035100
     15 H212        2.7000   -0.6920   -1.1920 hc        1 PRZ      0.064700
     16 H211        1.1590   -0.4300   -2.1190 hc        1 PRZ      0.064700
     17 H22         2.7810    1.8350   -0.7780 hc        1 PRZ      0.056700
     18 H233        3.6390    2.3070   -3.0890 hc        1 PRZ      0.035533
     19 H232        2.8410    0.7990   -3.6980 hc        1 PRZ      0.035533
     20 H231        4.1770    0.6880   -2.4780 hc        1 PRZ      0.035533
     21 H243        0.6060    1.8440   -2.9890 hc        1 PRZ      0.035533
     22 H242        1.4860    3.2880   -2.3370 hc        1 PRZ      0.035533
     23 H241        0.3730    2.3410   -1.2630 hc        1 PRZ      0.035533
     24 H313        5.0230    0.2280    1.8970 h1        1 PRZ      0.052033
     25 H312        3.8290   -0.7610    2.8910 h1        1 PRZ      0.052033
     26 H311        3.7290    1.0720    2.8990 h1        1 PRZ      0.052033
@<TRIPOS>BOND
     1    1    2 ar  
     2    1    6 ar  
     3    2    3 ar  
     4    2    7 1   
     5    3    4 ar  
     6    3   11 1   
     7    4    5 ar  
     8    5    6 ar  
     9    5   13 1   
    10    6   14 1   
    11    7    8 1   
    12    7   15 1   
    13    7   16 1   
    14    8    9 1   
    15    8   10 1   
    16    8   17 1   
    17    9   18 1   
    18    9   19 1   
    19    9   20 1   
    20   10   21 1   
    21   10   22 1   
    22   10   23 1   
    23   11   12 1   
    24   12   24 1   
    25   12   25 1   
    26   12   26 1   
@<TRIPOS>SUBSTRUCTURE
     1 PRZ         1 TEMP              0 ****  ****    0 ROOT
