@<TRIPOS>MOLECULE
PS1
   87    86     1     0     0
SMALL
bcc


@<TRIPOS>ATOM
      1 O1           0.0000     0.0000     0.0000 o          1 PS1      -0.667000
      2 O2           2.0590     1.2610    -0.7300 o          1 PS1      -0.667000
      3 P1           1.5440     0.0000     0.0000 p5         1 PS1       0.899800
      4 O3           2.0810     0.0000     1.5180 os         1 PS1      -0.508200
      5 C1           1.4790     1.1210     2.1690 c3         1 PS1       0.249400
      6 C2           1.9500     1.1790     3.6230 c3         1 PS1      -0.217500
      7 C3           1.4130     2.4280     4.2750 c          1 PS1       0.971600
      8 O4           2.0200     3.6070     4.0670 o          1 PS1      -0.846300
      9 O5           0.4370     2.3670     4.9860 o          1 PS1      -0.846300
     10 N1           1.4570    -0.0010     4.3450 nz         1 PS1       0.095400
     11 O6           2.0810    -1.3150    -0.7590 os         1 PS1      -0.452200
     12 C4           1.4790    -1.3170    -2.0550 c3         1 PS1       0.225400
     13 C5           1.9500    -2.5470    -2.8330 c3         1 PS1       0.166100
     14 C6           3.4790    -2.5730    -2.8710 c3         1 PS1       0.239400
     15 O7           3.9990    -2.5100    -1.5160 os         1 PS1      -0.352900
     16 C7           5.3230    -2.5190    -1.3040 c          1 PS1       0.698100
     17 O8           6.0850    -2.5800    -2.2400 o          1 PS1      -0.628000
     18 C8           5.8620    -2.4550     0.1030 c3         1 PS1      -0.069400
     19 C9           7.3920    -2.4800     0.0640 c3         1 PS1      -0.020400
     20 C10          7.9370    -2.4150     1.4920 c3         1 PS1      -0.030400
     21 C11          9.4670    -2.4400     1.4550 c3         1 PS1      -0.027400
     22 C12         10.0140    -2.3750     2.8820 c3         1 PS1      -0.029400
     23 C13         11.5420    -2.3990     2.8440 c3         1 PS1      -0.029400
     24 C14         12.0900    -2.3350     4.2720 c3         1 PS1      -0.030400
     25 C15         13.6190    -2.3590     4.2340 c3         1 PS1      -0.028400
     26 C16         14.1650    -2.2940     5.6620 c3         1 PS1       0.005900
     27 O9           1.4620    -3.7490    -2.1800 os         1 PS1      -0.401900
     28 C17          0.2730    -4.2650    -2.5250 c          1 PS1       0.700100
     29 O10         -0.3930    -3.7300    -3.3790 o          1 PS1      -0.601000
     30 C18         -0.2340    -5.5120    -1.8470 c3         1 PS1      -0.069400
     31 C19         -1.6020    -5.8850    -2.4210 c3         1 PS1      -0.021400
     32 C20         -2.1160    -7.1510    -1.7320 c3         1 PS1      -0.030400
     33 C21         -3.4850    -7.5230    -2.3060 c3         1 PS1      -0.027400
     34 C22         -3.9980    -8.7900    -1.6170 c3         1 PS1      -0.029400
     35 C23         -5.3670    -9.1620    -2.1900 c3         1 PS1      -0.029400
     36 C24         -5.8810   -10.4290    -1.5020 c3         1 PS1      -0.029400
     37 C25         -7.2490   -10.8020    -2.0760 c3         1 PS1      -0.029400
     38 C26         -7.7630   -12.0670    -1.3880 c3         1 PS1       0.005900
     39 H1           0.4010     1.0180     2.1420 h1         1 PS1       0.052700
     40 H2           1.7680     2.0320     1.6600 h1         1 PS1       0.052700
     41 H3           3.0330     1.1930     3.6520 hx         1 PS1       0.080700
     42 H5           1.9680    -0.8100     4.0510 hn         1 PS1       0.202800
     43 H6           0.4850    -0.1310     4.1470 hn         1 PS1       0.202800
     44 H7           0.4010    -1.3460    -1.9520 h1         1 PS1       0.027700
     45 H8           1.7670    -0.4200    -2.5890 h1         1 PS1       0.027700
     46 H9           1.5640    -2.5040    -3.8440 h1         1 PS1       0.031700
     47 H10          3.8130    -3.4880    -3.3440 h1         1 PS1       0.005200
     48 H11          3.8400    -1.7220    -3.4360 h1         1 PS1       0.005200
     49 H12          5.5010    -3.3070     0.6670 hc         1 PS1       0.038200
     50 H13          5.5270    -1.5400     0.5760 hc         1 PS1       0.038200
     51 H14          7.7260    -3.3950    -0.4090 hc         1 PS1       0.026700
     52 H15          7.7530    -1.6280    -0.5000 hc         1 PS1       0.026700
     53 H16          7.5760    -3.2660     2.0560 hc         1 PS1       0.012200
     54 H17          7.6030    -1.5000     1.9650 hc         1 PS1       0.012200
     55 H18          9.8020    -3.3560     0.9820 hc         1 PS1       0.015200
     56 H19          9.8290    -1.5890     0.8900 hc         1 PS1       0.015200
     57 H20          9.6530    -3.2260     3.4460 hc         1 PS1       0.013700
     58 H21          9.6790    -1.4590     3.3550 hc         1 PS1       0.013700
     59 H22         11.8770    -3.3140     2.3710 hc         1 PS1       0.013700
     60 H23         11.9040    -1.5480     2.2810 hc         1 PS1       0.013700
     61 H24         11.7290    -3.1870     4.8360 hc         1 PS1       0.014200
     62 H25         11.7540    -1.4200     4.7460 hc         1 PS1       0.014200
     63 H26         13.9540    -3.2730     3.7610 hc         1 PS1       0.011200
     64 H27         13.9800    -1.5070     3.6700 hc         1 PS1       0.011200
     65 H28         15.2480    -2.3020     5.6350 hc         1 PS1      -0.001300
     66 H29         13.8110    -3.1500     6.2230 hc         1 PS1      -0.001300
     67 H30         13.8230    -1.3830     6.1380 hc         1 PS1      -0.001300
     68 H31          0.4620    -6.3240    -2.0180 hc         1 PS1       0.031200
     69 H32         -0.3260    -5.3320    -0.7830 hc         1 PS1       0.031200
     70 H33         -1.5110    -6.0640    -3.4850 hc         1 PS1       0.030700
     71 H34         -2.2990    -5.0730    -2.2500 hc         1 PS1       0.030700
     72 H35         -2.2060    -6.9720    -0.6680 hc         1 PS1       0.010700
     73 H36         -1.4190    -7.9630    -1.9040 hc         1 PS1       0.010700
     74 H37         -3.3940    -7.7030    -3.3700 hc         1 PS1       0.017200
     75 H38         -4.1810    -6.7110    -2.1340 hc         1 PS1       0.017200
     76 H39         -4.0890    -8.6110    -0.5530 hc         1 PS1       0.012700
     77 H40         -3.3020    -9.6020    -1.7890 hc         1 PS1       0.012700
     78 H41         -5.2760    -9.3410    -3.2550 hc         1 PS1       0.015200
     79 H42         -6.0630    -8.3500    -2.0190 hc         1 PS1       0.015200
     80 H43         -5.9730   -10.2500    -0.4380 hc         1 PS1       0.013700
     81 H44         -5.1850   -11.2410    -1.6730 hc         1 PS1       0.013700
     82 H45         -7.9460    -9.9900    -1.9050 hc         1 PS1       0.012200
     83 H46         -7.1580   -10.9810    -3.1400 hc         1 PS1       0.012200
     84 H47         -7.0640   -12.8780    -1.5550 hc         1 PS1      -0.001633
     85 H48         -8.7300   -12.3330    -1.7980 hc         1 PS1      -0.001633
     86 H49         -7.8590   -11.8860    -0.3240 hc         1 PS1      -0.001633
     87 H131         1.5860     0.1320     5.3290 hn         1 PS1       0.202800
@<TRIPOS>BOND
     1     1     3 1   
     2     2     3 1   
     3     3     4 1   
     4     3    11 1   
     5     4     5 1   
     6     5     6 1   
     7     5    39 1   
     8     5    40 1   
     9     6     7 1   
    10     6    10 1   
    11     6    41 1   
    12     7     8 1   
    13     7     9 1   
    14    10    42 1   
    15    10    43 1   
    16    10    87 1   
    17    11    12 1   
    18    12    13 1   
    19    12    44 1   
    20    12    45 1   
    21    13    14 1   
    22    13    27 1   
    23    13    46 1   
    24    14    15 1   
    25    14    47 1   
    26    14    48 1   
    27    15    16 1   
    28    16    17 2   
    29    16    18 1   
    30    18    19 1   
    31    18    49 1   
    32    18    50 1   
    33    19    20 1   
    34    19    51 1   
    35    19    52 1   
    36    20    21 1   
    37    20    53 1   
    38    20    54 1   
    39    21    22 1   
    40    21    55 1   
    41    21    56 1   
    42    22    23 1   
    43    22    57 1   
    44    22    58 1   
    45    23    24 1   
    46    23    59 1   
    47    23    60 1   
    48    24    25 1   
    49    24    61 1   
    50    24    62 1   
    51    25    26 1   
    52    25    63 1   
    53    25    64 1   
    54    26    65 1   
    55    26    66 1   
    56    26    67 1   
    57    27    28 1   
    58    28    29 2   
    59    28    30 1   
    60    30    31 1   
    61    30    68 1   
    62    30    69 1   
    63    31    32 1   
    64    31    70 1   
    65    31    71 1   
    66    32    33 1   
    67    32    72 1   
    68    32    73 1   
    69    33    34 1   
    70    33    74 1   
    71    33    75 1   
    72    34    35 1   
    73    34    76 1   
    74    34    77 1   
    75    35    36 1   
    76    35    78 1   
    77    35    79 1   
    78    36    37 1   
    79    36    80 1   
    80    36    81 1   
    81    37    38 1   
    82    37    82 1   
    83    37    83 1   
    84    38    84 1   
    85    38    85 1   
    86    38    86 1   
@<TRIPOS>SUBSTRUCTURE
     1 PS1         1 TEMP              0 ****  ****    0 ROOT
