@<TRIPOS>MOLECULE
PS2
  128   127     1     0     0
SMALL
bcc


@<TRIPOS>ATOM
      1 C48         8.4940    2.4240   20.5860 c3        1 PS2     -0.090100
      2 C47         9.6380    1.5500   20.1420 c3        1 PS2     -0.082400
      3 C46         9.8260    1.5960   18.6400 c3        1 PS2     -0.079400
      4 C45        10.9660    0.7040   18.1980 c3        1 PS2     -0.081400
      5 C44        11.1620    0.7570   16.6980 c3        1 PS2     -0.078400
      6 C43        12.3040   -0.1360   16.2650 c3        1 PS2     -0.074400
      7 C42        12.4840   -0.1120   14.7620 c3        1 PS2     -0.091400
      8 C41        13.5490   -1.1010   14.3340 c3        1 PS2     -0.077400
      9 C40        13.7980   -1.0390   12.8410 c3        1 PS2      0.039700
     10 BR2        12.3280   -1.8510   11.8200 br        1 PS2     -0.262400
     11 C39        15.1450   -1.6240   12.4630 c3        1 PS2      0.045700
     12 BR1        15.1560   -3.5860   12.5880 br        1 PS2     -0.264400
     13 C38        15.6050   -1.1280   11.1080 c3        1 PS2     -0.090400
     14 C37        17.0430   -1.4930   10.8000 c3        1 PS2     -0.074400
     15 C36        17.5490   -0.6840    9.6220 c3        1 PS2     -0.091400
     16 C35        18.9680   -1.0610    9.2540 c3        1 PS2     -0.070400
     17 C34        19.5380   -0.0870    8.2450 c3        1 PS2     -0.089400
     18 C33        20.9670   -0.4310    7.8790 c3        1 PS2     -0.067400
     19 C32        21.6320    0.6710    7.0760 c3        1 PS2     -0.127400
     20 C31        22.2010    1.7500    7.9550 c         1 PS2      0.640100
     21 O31        23.3850    2.1000    8.0240 o         1 PS2     -0.583000
     22 O2         21.2580    2.3830    8.6910 os        1 PS2     -0.417900
     23 C2         21.6630    3.2900    9.7410 c3        1 PS2      0.140100
     24 C1         20.3340    3.9180   10.1950 c3        1 PS2      0.183400
     25 O3P        20.5720    4.7250   11.3060 os        1 PS2     -0.562200
     26 P          19.1740    5.1450   12.0980 p5        1 PS2      1.431800
     27 O1P        19.5460    6.0990   13.1560 o         1 PS2     -0.833000
     28 O2P        18.1530    5.3710   11.0530 o         1 PS2     -0.833000
     29 O4P        18.8700    3.6590   12.7380 os        1 PS2     -0.605200
     30 C4         17.5680    3.4140   13.1950 c3        1 PS2      0.170400
     31 C5         16.8710    2.3340   12.3350 c3        1 PS2      0.032500
     32 C6         15.7480    1.6960   13.1920 c         1 PS2      0.904600
     33 O7         14.5370    2.0290   13.0240 o         1 PS2     -0.869300
     34 O6         16.0810    0.8080   14.0390 o         1 PS2     -0.869300
     35 N5         16.4230    2.7760   11.0290 n3        1 PS2     -0.927800
     36 C3         22.3790    2.5460   10.8660 c3        1 PS2      0.121400
     37 O3         21.5180    1.4880   11.2930 os        1 PS2     -0.451900
     38 C11        21.4870    1.1960   12.6370 c         1 PS2      0.661100
     39 O11        22.5000    1.4330   13.2990 o         1 PS2     -0.572000
     40 C12        20.1690    0.6250   13.0330 c3        1 PS2     -0.156400
     41 C13        20.2130   -0.1810   14.3110 c3        1 PS2     -0.060400
     42 C14        18.8420   -0.7740   14.5660 c3        1 PS2     -0.115400
     43 C15        18.6340   -1.1600   16.0130 c3        1 PS2     -0.057400
     44 C16        17.1840   -1.5340   16.2410 c3        1 PS2     -0.103400
     45 C17        16.8580   -1.6670   17.7120 c3        1 PS2     -0.069400
     46 C18        15.3930   -1.9940   17.9090 c3        1 PS2     -0.086400
     47 C19        14.9910   -1.9180   19.3660 c3        1 PS2     -0.075400
     48 C20        13.4940   -2.0790   19.5270 c3        1 PS2     -0.085400
     49 C21        13.0830   -2.0040   20.9820 c3        1 PS2     -0.076400
     50 C22        11.5770   -2.0530   21.1290 c3        1 PS2     -0.083400
     51 C23        11.1620   -2.0120   22.5840 c3        1 PS2     -0.077400
     52 C24         9.6550   -2.0130   22.7250 c3        1 PS2     -0.080400
     53 C25         9.2350   -1.9670   24.1780 c3        1 PS2     -0.079400
     54 C26         7.7350   -1.9700   24.3220 c3        1 PS2     -0.091100
     55 H481        7.5380    2.0910   20.1140 hc        1 PS2      0.026367
     56 H482        8.3750    2.3780   21.6950 hc        1 PS2      0.026367
     57 H483        8.6750    3.4870   20.2940 hc        1 PS2      0.026367
     58 H471        9.4520    0.4910   20.4650 hc        1 PS2      0.036700
     59 H472       10.5850    1.8840   20.6450 hc        1 PS2      0.036700
     60 H461       10.0300    2.6510   18.3190 hc        1 PS2      0.038200
     61 H462        8.8780    1.2740   18.1330 hc        1 PS2      0.038200
     62 H451       10.7590   -0.3540   18.5130 hc        1 PS2      0.035700
     63 H452       11.9120    1.0190   18.7110 hc        1 PS2      0.035700
     64 H441       11.3740    1.8120   16.3800 hc        1 PS2      0.040700
     65 H442       10.2170    0.4390   16.1840 hc        1 PS2      0.040700
     66 H431       13.2540    0.2060   16.7570 hc        1 PS2      0.034200
     67 H432       12.1120   -1.1870   16.6100 hc        1 PS2      0.034200
     68 H421       12.8070    0.9170   14.4300 hc        1 PS2      0.065700
     69 H422       11.5090   -0.3470   14.2620 hc        1 PS2      0.065700
     70 H411       13.2800   -2.1380   14.6600 hc        1 PS2      0.063700
     71 H412       14.5150   -0.8060   14.8430 hc        1 PS2      0.063700
     72 H40        13.8000    0.0550   12.5370 h1        1 PS2      0.165700
     73 H39        15.8940   -1.2850   13.2410 h1        1 PS2      0.142700
     74 H381       14.9330   -1.5040   10.2950 hc        1 PS2      0.074700
     75 H382       15.5240    0.0000   11.1340 hc        1 PS2      0.074700
     76 H371       17.6850   -1.2770   11.6970 hc        1 PS2      0.038200
     77 H372       17.1300   -2.5880   10.5760 hc        1 PS2      0.038200
     78 H361       16.8770   -0.8430    8.7380 hc        1 PS2      0.057700
     79 H362       17.5030    0.4090    9.8840 hc        1 PS2      0.057700
     80 H351       18.9940   -2.1030    8.8400 hc        1 PS2      0.029200
     81 H352       19.6070   -1.0530   10.1780 hc        1 PS2      0.029200
     82 H341       18.9030   -0.0820    7.3220 hc        1 PS2      0.058200
     83 H342       19.5060    0.9500    8.6820 hc        1 PS2      0.058200
     84 H331       21.5570   -0.6200    8.8150 hc        1 PS2      0.040700
     85 H332       20.9830   -1.3760    7.2750 hc        1 PS2      0.040700
     86 H321       22.4760    0.2510    6.4690 hc        1 PS2      0.060700
     87 H322       20.8900    1.1400    6.3780 hc        1 PS2      0.060700
     88 H2         22.3630    4.0570    9.3160 h1        1 PS2      0.059700
     89 H11        19.9040    4.5390    9.3640 h1        1 PS2      0.050200
     90 H12        19.6030    3.1030   10.4630 h1        1 PS2      0.050200
     91 H41        16.9750    4.3690   13.1900 h1        1 PS2      0.027700
     92 H42        17.6460    3.0220   14.2480 h1        1 PS2      0.027700
     93 H5         17.6360    1.5200   12.1450 h1        1 PS2      0.042700
     94 HN51       16.9900    3.5460   10.7140 hn        1 PS2      0.360300
     95 HN52       15.4720    3.0900   11.0960 hn        1 PS2      0.360300
     96 H31        23.3310    2.0820   10.4990 h1        1 PS2      0.068200
     97 H32        22.5810    3.2610   11.7070 h1        1 PS2      0.068200
     98 H121       19.7590    0.0080   12.1890 hc        1 PS2      0.113700
     99 H122       19.4750    1.5160   13.1580 hc        1 PS2      0.113700
    100 H131       20.5170    0.4860   15.1590 hc        1 PS2      0.033200
    101 H132       20.9830   -0.9920   14.2360 hc        1 PS2      0.033200
    102 H141       18.6940   -1.6730   13.9120 hc        1 PS2      0.075700
    103 H142       18.0450   -0.0230   14.2730 hc        1 PS2      0.075700
    104 H151       18.9060   -0.2950   16.6740 hc        1 PS2      0.019700
    105 H152       19.3050   -2.0140   16.2920 hc        1 PS2      0.019700
    106 H161       16.9570   -2.4980   15.7150 hc        1 PS2      0.069700
    107 H162       16.5290   -0.7400   15.7760 hc        1 PS2      0.069700
    108 H171       17.4910   -2.4670   18.1780 hc        1 PS2      0.025700
    109 H172       17.1020   -0.7050   18.2350 hc        1 PS2      0.025700
    110 H181       14.7700   -1.2750   17.3080 hc        1 PS2      0.048700
    111 H182       15.1790   -3.0210   17.5110 hc        1 PS2      0.048700
    112 H191       15.5230   -2.7150   19.9480 hc        1 PS2      0.030700
    113 H192       15.3070   -0.9290   19.7920 hc        1 PS2      0.030700
    114 H201       12.9670   -1.2750   18.9420 hc        1 PS2      0.045700
    115 H202       13.1720   -3.0620   19.0950 hc        1 PS2      0.045700
    116 H211       13.5460   -2.8540   21.5490 hc        1 PS2      0.033200
    117 H212       13.4730   -1.0540   21.4340 hc        1 PS2      0.033200
    118 H221       11.1820   -2.9880   20.6510 hc        1 PS2      0.043200
    119 H222       11.1200   -1.1840   20.5830 hc        1 PS2      0.043200
    120 H231       11.5920   -2.8960   23.1240 hc        1 PS2      0.035200
    121 H232       11.5840   -1.0920   23.0690 hc        1 PS2      0.035200
    122 H241        9.2280   -1.1280   22.1810 hc        1 PS2      0.040700
    123 H242        9.2330   -2.9330   22.2410 hc        1 PS2      0.040700
    124 H251        9.6680   -2.8490   24.7200 hc        1 PS2      0.035700
    125 H252        9.6580   -1.0450   24.6600 hc        1 PS2      0.035700
    126 H261        7.4470   -1.9340   25.4010 hc        1 PS2      0.029033
    127 H262        7.2980   -2.8920   23.8700 hc        1 PS2      0.029033
    128 H263        7.2890   -1.0840   23.8080 hc        1 PS2      0.029033
@<TRIPOS>BOND
     1    1    2 1   
     2    1   55 1   
     3    1   56 1   
     4    1   57 1   
     5    2    3 1   
     6    2   58 1   
     7    2   59 1   
     8    3    4 1   
     9    3   60 1   
    10    3   61 1   
    11    4    5 1   
    12    4   62 1   
    13    4   63 1   
    14    5    6 1   
    15    5   64 1   
    16    5   65 1   
    17    6    7 1   
    18    6   66 1   
    19    6   67 1   
    20    7    8 1   
    21    7   68 1   
    22    7   69 1   
    23    8    9 1   
    24    8   70 1   
    25    8   71 1   
    26    9   10 1   
    27    9   11 1   
    28    9   72 1   
    29   11   12 1   
    30   11   13 1   
    31   11   73 1   
    32   13   14 1   
    33   13   74 1   
    34   13   75 1   
    35   14   15 1   
    36   14   76 1   
    37   14   77 1   
    38   15   16 1   
    39   15   78 1   
    40   15   79 1   
    41   16   17 1   
    42   16   80 1   
    43   16   81 1   
    44   17   18 1   
    45   17   82 1   
    46   17   83 1   
    47   18   19 1   
    48   18   84 1   
    49   18   85 1   
    50   19   20 1   
    51   19   86 1   
    52   19   87 1   
    53   20   21 2   
    54   20   22 1   
    55   22   23 1   
    56   23   24 1   
    57   23   36 1   
    58   23   88 1   
    59   24   25 1   
    60   24   89 1   
    61   24   90 1   
    62   25   26 1   
    63   26   27 1   
    64   26   28 1   
    65   26   29 1   
    66   29   30 1   
    67   30   31 1   
    68   30   91 1   
    69   30   92 1   
    70   31   32 1   
    71   31   35 1   
    72   31   93 1   
    73   32   33 1   
    74   32   34 1   
    75   35   94 1   
    76   35   95 1   
    77   36   37 1   
    78   36   96 1   
    79   36   97 1   
    80   37   38 1   
    81   38   39 2   
    82   38   40 1   
    83   40   41 1   
    84   40   98 1   
    85   40   99 1   
    86   41   42 1   
    87   41  100 1   
    88   41  101 1   
    89   42   43 1   
    90   42  102 1   
    91   42  103 1   
    92   43   44 1   
    93   43  104 1   
    94   43  105 1   
    95   44   45 1   
    96   44  106 1   
    97   44  107 1   
    98   45   46 1   
    99   45  108 1   
   100   45  109 1   
   101   46   47 1   
   102   46  110 1   
   103   46  111 1   
   104   47   48 1   
   105   47  112 1   
   106   47  113 1   
   107   48   49 1   
   108   48  114 1   
   109   48  115 1   
   110   49   50 1   
   111   49  116 1   
   112   49  117 1   
   113   50   51 1   
   114   50  118 1   
   115   50  119 1   
   116   51   52 1   
   117   51  120 1   
   118   51  121 1   
   119   52   53 1   
   120   52  122 1   
   121   52  123 1   
   122   53   54 1   
   123   53  124 1   
   124   53  125 1   
   125   54  126 1   
   126   54  127 1   
   127   54  128 1   
@<TRIPOS>SUBSTRUCTURE
     1 PS2         1 TEMP              0 ****  ****    0 ROOT
