@<TRIPOS>MOLECULE
PS4
   61    63     1     0     0
SMALL
bcc


@<TRIPOS>ATOM
      1 C1           0.0000     0.0000     0.0000 c3         1 PS4       0.029700
      2 C7           0.9080    12.2250     6.8700 ca         1 PS4      -0.075000
      3 C8           1.0760    12.9830     5.7280 ca         1 PS4      -0.161300
      4 C11         -1.1270    13.3960     7.3480 ca         1 PS4      -0.065000
      5 C12         -0.9580    14.1550     6.2060 ca         1 PS4      -0.062000
      6 C15          3.1930    11.3870     2.9690 c3         1 PS4      -0.123400
      7 C16          2.8950    10.2620     2.0100 c          1 PS4       0.586100
      8 C18          3.7360     8.6580     0.2770 c3         1 PS4       0.102700
      9 C19          3.4810     7.3840     1.0850 c3         1 PS4      -0.105000
     10 C23          5.6650     9.9640    -0.3830 c3         1 PS4      -0.022400
     11 C24          5.0700     8.5340    -0.4890 c3         1 PS4      -0.056400
     12 C27          2.7720     3.0070    -2.4920 ca         1 PS4      -0.137000
     13 C30          2.4250     2.6460     0.2370 ca         1 PS4       0.073000
     14 C31          2.2540     1.5860    -0.6290 ca         1 PS4      -0.169500
     15 O32          2.8090     4.8880     1.8550 o          1 PS4      -0.637100
     16 C28          2.7740     3.9020    -0.2640 ca         1 PS4      -0.195600
     17 C29          2.4260     1.7660    -1.9910 ca         1 PS4       0.034000
     18 C26          2.9460     4.0760    -1.6380 ca         1 PS4      -0.041000
     19 S4           1.8140     0.0000     0.0000 sy         1 PS4       0.876300
     20 O2           2.3130     0.0000     1.3300 o          1 PS4      -0.580300
     21 O3           2.3120    -0.9120    -0.9690 o          1 PS4      -0.580300
     22 N20          3.2960     6.2540     0.1730 ns         1 PS4      -0.174900
     23 C22          5.2060    10.3880     1.0340 c3         1 PS4       0.034000
     24 N17          3.8570     9.8090     1.1830 n          1 PS4      -0.102800
     25 O5           1.7890     9.7660     1.9840 o          1 PS4      -0.702100
     26 C14          1.9390    11.7050     3.7870 c3         1 PS4      -0.030500
     27 N21          0.8920    12.2220     2.8960 nz         1 PS4      -0.075600
     28 C13          2.2760    12.7590     4.8440 c3         1 PS4       0.022900
     29 C10          0.1430    13.9480     5.3950 ca         1 PS4      -0.137000
     30 C9          -0.1940    12.4300     7.6830 ca         1 PS4      -0.032600
     31 Cl6         -0.4070    11.4770     9.1170 cl         1 PS4       0.042600
     32 H1          -0.3610    -0.9980     0.2180 h1         1 PS4       0.061033
     33 H1A         -0.3610     0.6880     0.7550 h1         1 PS4       0.061033
     34 H1B         -0.3610     0.3100    -0.9730 h1         1 PS4       0.061033
     35 H11         -1.9900    13.5590     7.9830 ha         1 PS4       0.133000
     36 H12         -1.6880    14.9110     5.9450 ha         1 PS4       0.122000
     37 H15          3.4950    12.2660     2.4130 hc         1 PS4       0.065200
     38 H15A         3.9930    11.0900     3.6370 hc         1 PS4       0.065200
     39 H18          2.9260     8.8250    -0.4230 h1         1 PS4       0.023700
     40 H19          2.7030     7.7950     0.4530 h1         1 PS4       0.068700
     41 H19A         3.0180     7.3960     2.0650 h1         1 PS4       0.068700
     42 H23          6.7460     9.9380    -0.4460 hc         1 PS4       0.037200
     43 H23A         5.2400    10.6150    -1.1370 hc         1 PS4       0.037200
     44 H24          4.8930     8.2710    -1.5250 hc         1 PS4       0.045700
     45 H24A         5.7210     7.8140    -0.0090 hc         1 PS4       0.045700
     46 H27          2.9050     3.1400    -3.5590 ha         1 PS4       0.114000
     47 H30          2.2900     2.5050     1.3020 ha         1 PS4       0.147000
     48 H29          2.2910     0.9300    -2.6670 ha         1 PS4       0.128000
     49 H26          3.2170     5.0480    -2.0330 ha         1 PS4       0.092000
     50 HN20         3.4200     6.3810    -0.8120 hn         1 PS4       0.182500
     51 H22          5.8740     9.9810     1.7830 h1         1 PS4       0.028200
     52 H22A         5.1610    11.4680     1.1070 h1         1 PS4       0.028200
     53 H14          1.5870    10.8040     4.2740 hx         1 PS4       0.111700
     54 HN21         0.5170    11.3950     3.3170 hn         1 PS4       0.272133
     55 HN2A         0.4680    13.0750     3.2020 hn         1 PS4       0.272133
     56 H13          2.5430    13.6880     4.3560 hc         1 PS4       0.052200
     57 H13A         3.1080    12.4140     5.4460 hc         1 PS4       0.052200
     58 H10          0.2750    14.5430     4.4990 ha         1 PS4       0.096000
     59 C25          2.9600     5.0430     0.6580 c          1 PS4       0.597700
     60 H213         1.0960    12.1360     1.9200 hn         1 PS4       0.272133
     61 H7           1.6390    11.4690     7.1310 ha         1 PS4       0.126000
@<TRIPOS>BOND
     1     1    19 1   
     2     1    32 1   
     3     1    33 1   
     4     1    34 1   
     5     2     3 ar  
     6     2    30 ar  
     7     2    61 1   
     8     3    28 1   
     9     3    29 ar  
    10     4     5 ar  
    11     4    30 ar  
    12     4    35 1   
    13     5    29 ar  
    14     5    36 1   
    15     6     7 1   
    16     6    26 1   
    17     6    37 1   
    18     6    38 1   
    19     7    24 1   
    20     7    25 2   
    21     8     9 1   
    22     8    11 1   
    23     8    24 1   
    24     8    39 1   
    25     9    22 1   
    26     9    40 1   
    27     9    41 1   
    28    10    11 1   
    29    10    23 1   
    30    10    42 1   
    31    10    43 1   
    32    11    44 1   
    33    11    45 1   
    34    12    17 ar  
    35    12    18 ar  
    36    12    46 1   
    37    13    14 ar  
    38    13    16 ar  
    39    13    47 1   
    40    14    17 ar  
    41    14    19 1   
    42    15    59 2   
    43    16    18 ar  
    44    16    59 1   
    45    17    48 1   
    46    18    49 1   
    47    19    20 2   
    48    19    21 2   
    49    22    50 1   
    50    22    59 1   
    51    23    24 1   
    52    23    51 1   
    53    23    52 1   
    54    26    27 1   
    55    26    28 1   
    56    26    53 1   
    57    27    54 1   
    58    27    55 1   
    59    27    60 1   
    60    28    56 1   
    61    28    57 1   
    62    29    58 1   
    63    30    31 1   
@<TRIPOS>SUBSTRUCTURE
     1 PS4         1 TEMP              0 ****  ****    0 ROOT
