@<TRIPOS>MOLECULE
molecule
   61    63     1     0     0
SMALL
bcc


@<TRIPOS>ATOM
      1 C1           0.0000     0.0000     0.0000 c3         1 PS4      -0.225300
      2 C7           0.9080    12.2250     6.8700 ca         1 PS4      -0.107000
      3 C8           1.0760    12.9830     5.7280 ca         1 PS4      -0.144300
      4 C11         -1.1270    13.3960     7.3480 ca         1 PS4      -0.094000
      5 C12         -0.9580    14.1550     6.2060 ca         1 PS4      -0.096000
      6 C15          3.1930    11.3870     2.9690 c3         1 PS4      -0.190400
      7 C16          2.8950    10.2620     2.0100 c          1 PS4       0.663100
      8 C18          3.7360     8.6580     0.2770 c3         1 PS4       0.167700
      9 C19          3.4810     7.3840     1.0850 c3         1 PS4      -0.030000
     10 C23          5.6650     9.9640    -0.3830 c3         1 PS4      -0.091400
     11 C24          5.0700     8.5340    -0.4890 c3         1 PS4      -0.104400
     12 C27          2.7720     3.0070    -2.4920 ca         1 PS4      -0.155000
     13 C30          2.4250     2.6460     0.2370 ca         1 PS4       0.033000
     14 C31          2.2540     1.5860    -0.6290 ca         1 PS4      -0.305500
     15 O32          2.8090     4.8880     1.8550 o          1 PS4      -0.598100
     16 C28          2.7740     3.9020    -0.2640 ca         1 PS4      -0.172600
     17 C29          2.4260     1.7660    -1.9910 ca         1 PS4      -0.003000
     18 C26          2.9460     4.0760    -1.6380 ca         1 PS4      -0.061000
     19 S4           1.8140     0.0000     0.0000 sy         1 PS4       1.191300
     20 O2           2.3130     0.0000     1.3300 o          1 PS4      -0.608300
     21 O3           2.3120    -0.9120    -0.9690 o          1 PS4      -0.608300
     22 N20          3.2960     6.2540     0.1730 ns         1 PS4      -0.572900
     23 C22          5.2060    10.3880     1.0340 c3         1 PS4       0.083000
     24 N17          3.8570     9.8090     1.1830 n          1 PS4      -0.461800
     25 O5           1.7890     9.7660     1.9840 o          1 PS4      -0.654100
     26 C14          1.9390    11.7050     3.7870 c3         1 PS4       0.112500
     27 N21          0.8920    12.2220     2.8960 nz         1 PS4      -0.869600
     28 C13          2.2760    12.7590     4.8440 c3         1 PS4      -0.056100
     29 C10          0.1430    13.9480     5.3950 ca         1 PS4      -0.162000
     30 C9          -0.1940    12.4300     7.6830 ca         1 PS4       0.043400
     31 Cl6         -0.4070    11.4770     9.1170 cl         1 PS4      -0.053400
     32 H1          -0.3610    -0.9980     0.2180 h1         1 PS4       0.100700
     33 H1A         -0.3610     0.6880     0.7550 h1         1 PS4       0.100700
     34 H1B         -0.3610     0.3100    -0.9730 h1         1 PS4       0.100700
     35 H11         -1.9900    13.5590     7.9830 ha         1 PS4       0.169000
     36 H12         -1.6880    14.9110     5.9450 ha         1 PS4       0.157000
     37 H15          3.4950    12.2660     2.4130 hc         1 PS4       0.103700
     38 H15A         3.9930    11.0900     3.6370 hc         1 PS4       0.103700
     39 H18          2.9260     8.8250    -0.4230 h1         1 PS4       0.046700
     40 H19          2.7030     7.7950     0.4530 h1         1 PS4       0.099700
     41 H19A         3.0180     7.3960     2.0650 h1         1 PS4       0.099700
     42 H23          6.7460     9.9380    -0.4460 hc         1 PS4       0.071200
     43 H23A         5.2400    10.6150    -1.1370 hc         1 PS4       0.071200
     44 H24          4.8930     8.2710    -1.5250 hc         1 PS4       0.077200
     45 H24A         5.7210     7.8140    -0.0090 hc         1 PS4       0.077200
     46 H27          2.9050     3.1400    -3.5590 ha         1 PS4       0.144000
     47 H30          2.2900     2.5050     1.3020 ha         1 PS4       0.179000
     48 H29          2.2910     0.9300    -2.6670 ha         1 PS4       0.160000
     49 H26          3.2170     5.0480    -2.0330 ha         1 PS4       0.119000
     50 HN20         3.4200     6.3810    -0.8120 hn         1 PS4       0.318500
     51 H22          5.8740     9.9810     1.7830 h1         1 PS4       0.057700
     52 H22A         5.1610    11.4680     1.1070 h1         1 PS4       0.057700
     53 H14          1.5870    10.8040     4.2740 hx         1 PS4       0.132700
     54 HN21         0.5170    11.3950     3.3170 hn         1 PS4       0.483800
     55 HN2A         0.4680    13.0750     3.2020 hn         1 PS4       0.483800
     56 H13          2.5430    13.6880     4.3560 hc         1 PS4       0.090200
     57 H13A         3.1080    12.4140     5.4460 hc         1 PS4       0.090200
     58 H10          0.2750    14.5430     4.4990 ha         1 PS4       0.118000
     59 C25          2.9600     5.0430     0.6580 c          1 PS4       0.673700
     60 H213         1.0960    12.1360     1.9200 hn         1 PS4       0.483800
     61 H7           1.6390    11.4690     7.1310 ha         1 PS4       0.155000
@<TRIPOS>BOND
     1     1    19 1
     2     2     3 ar
     3     2    30 ar
     4     3    28 1
     5     3    29 ar
     6     4     5 ar
     7     4    30 ar
     8     5    29 ar
     9     6     7 1
    10     6    26 1
    11     7    24 1
    12     7    25 2
    13     8     9 1
    14     8    11 1
    15     8    24 1
    16     9    22 1
    17    10    11 1
    18    10    23 1
    19    12    17 ar
    20    12    18 ar
    21    13    14 ar
    22    13    16 ar
    23    14    17 ar
    24    14    19 1
    25    15    59 2
    26    59    16 1
    27    59    22 1
    28    16    18 ar
    29    19    20 2
    30    19    21 2
    31    23    24 1
    32    26    27 1
    33    26    28 1
    34    30    31 1
    35     1    32 1
    36     1    33 1
    37     1    34 1
    38     2    61 1
    39     4    35 1
    40     5    36 1
    41     6    37 1
    42     6    38 1
    43     8    39 1
    44     9    40 1
    45     9    41 1
    46    10    42 1
    47    10    43 1
    48    11    44 1
    49    11    45 1
    50    12    46 1
    51    13    47 1
    52    17    48 1
    53    18    49 1
    54    22    50 1
    55    23    51 1
    56    23    52 1
    57    26    53 1
    58    27    54 1
    59    27    55 1
    60    28    56 1
    61    28    57 1
    62    29    58 1
    63    60    27 1
@<TRIPOS>SUBSTRUCTURE
     1 PS4         1 TEMP              0 ****  ****    0 ROOT
