@<TRIPOS>MOLECULE
molecule
    5     4     1     0     0
SMALL
bcc


@<TRIPOS>ATOM
      1 S1          -2.6120     0.4630     0.4820 s          1 PS5      -0.862000
      2 S2          -1.2160    -0.9940     0.1180 ss         1 PS5       0.008000
      3 S3           0.0000     0.0000    -1.2000 ss         1 PS5      -0.292000
      4 S4           1.2160     0.9940     0.1180 ss         1 PS5       0.008000
      5 S5           2.6120    -0.4630     0.4820 s          1 PS5      -0.862000
@<TRIPOS>BOND
     1     1     2 1
     2     2     3 1
     3     3     4 1
     4     4     5 1
@<TRIPOS>SUBSTRUCTURE
     1 PS5         1 TEMP              0 ****  ****    0 ROOT
