@<TRIPOS>MOLECULE
PS5
    5     4     1     0     0
SMALL
bcc


@<TRIPOS>ATOM
      1 S1         -3.2080    0.2990    0.5000 s         1 PS5     -0.900000
      2 S2         -1.6320   -0.7040   -0.1300 ss        1 PS5      0.011000
      3 S3         -0.0010    0.0030   -0.7360 ss        1 PS5     -0.221000
      4 S4          1.6310    0.7060   -0.1270 ss        1 PS5      0.011000
      5 S5          3.2090   -0.3030    0.4920 s         1 PS5     -0.900000
@<TRIPOS>BOND
     1    1    2 1   
     2    2    3 1   
     3    3    4 1   
     4    4    5 1   
@<TRIPOS>SUBSTRUCTURE
     1 PS5         1 TEMP              0 ****  ****    0 ROOT
