@<TRIPOS>MOLECULE
PS6
   87    86     1     0     0
SMALL
bcc


@<TRIPOS>ATOM
      1 O2           0.0000     0.0000     0.0000 os         1 PS6      -0.497200
      2 O1           2.1460    -1.3140    -0.7600 os         1 PS6      -0.537200
      3 P            1.6110     0.0000     0.0000 p5         1 PS6       0.933800
      4 O4           2.1470     0.0000     1.5180 o          1 PS6      -0.650500
      5 O3           2.1040     1.2090    -0.6980 o          1 PS6      -0.650500
      6 C2          -0.7780     1.0860     0.5070 c3         1 PS6       0.300400
      7 C3          -2.2660     0.7630     0.3560 c3         1 PS6       0.146100
      8 O11         -2.6010    -0.3750     1.1950 os         1 PS6      -0.405900
      9 O12         -2.1210    -1.7060    -0.5030 o          1 PS6      -0.578000
     10 C1          -2.4890    -1.5930     0.6440 c          1 PS6       0.704100
     11 C4          -3.0970     1.9740     0.7820 c3         1 PS6       0.220400
     12 C5          -5.3720     2.6800     0.8490 c          1 PS6       0.692100
     13 O51         -4.9730     3.7160     1.3270 o          1 PS6      -0.595000
     14 O52         -4.5020     1.7100     0.5290 os         1 PS6      -0.411900
     15 C13         -2.8190    -2.8200     1.4530 c3         1 PS6      -0.070400
     16 C14         -2.6090    -4.0690     0.5950 c3         1 PS6      -0.019400
     17 C15         -2.9450    -5.3150     1.4170 c3         1 PS6      -0.031400
     18 N            3.0570    -2.7960    -3.0750 nz         1 PS6       0.093400
     19 CA           3.6900    -2.8870    -1.7520 c3         1 PS6      -0.221500
     20 CB           3.5310    -1.5540    -1.0190 c3         1 PS6       0.313400
     21 C            5.1550    -3.1980    -1.9160 c          1 PS6       0.970600
     22 OXT          5.7050    -2.9790    -2.9700 o          1 PS6      -0.847800
     23 O            5.8510    -3.7170    -0.8920 o          1 PS6      -0.847800
     24 C16         -2.7340    -6.5650     0.5590 c3         1 PS6      -0.026400
     25 C17         -3.0700    -7.8110     1.3810 c3         1 PS6       0.006900
     26 C6          -6.8470     2.4780     0.6140 c3         1 PS6      -0.071400
     27 C7          -7.6110     3.7260     1.0630 c3         1 PS6      -0.020400
     28 C8          -9.1080     3.5200     0.8240 c3         1 PS6      -0.030400
     29 C9          -9.8720     4.7680     1.2740 c3         1 PS6      -0.027400
     30 C10        -11.3690     4.5620     1.0340 c3         1 PS6      -0.029400
     31 C18        -12.1320     5.8100     1.4840 c3         1 PS6      -0.029400
     32 C19        -13.6300     5.6050     1.2440 c3         1 PS6      -0.029400
     33 C20        -14.3940     6.8520     1.6930 c3         1 PS6      -0.029400
     34 C21        -15.8910     6.6470     1.4550 c3         1 PS6      -0.029400
     35 C22        -16.6550     7.8950     1.9030 c3         1 PS6      -0.029400
     36 C23        -18.1510     7.6890     1.6650 c3         1 PS6      -0.030400
     37 C24        -18.9160     8.9370     2.1130 c3         1 PS6      -0.028400
     38 C25        -20.4130     8.7320     1.8750 c3         1 PS6       0.005900
     39 H2          -0.5450     1.9870    -0.0480 h1         1 PS6      -0.004300
     40 H2A         -0.5460     1.2380     1.5550 h1         1 PS6      -0.004300
     41 H3          -2.4800     0.5240    -0.6780 h1         1 PS6       0.043700
     42 H4          -2.7850     2.8430     0.2160 h1         1 PS6       0.021200
     43 H4A         -2.9500     2.1590     1.8390 h1         1 PS6       0.021200
     44 H13         -3.8520    -2.7730     1.7760 hc         1 PS6       0.031200
     45 H13A        -2.1710    -2.8650     2.3210 hc         1 PS6       0.031200
     46 H14         -3.2560    -4.0240    -0.2730 hc         1 PS6       0.028200
     47 H14A        -1.5760    -4.1170     0.2730 hc         1 PS6       0.028200
     48 H15         -3.9780    -5.2680     1.7380 hc         1 PS6       0.012200
     49 H15A        -2.2990    -5.3600     2.2850 hc         1 PS6       0.012200
     50 HA           3.2160    -3.6740    -1.1780 hx         1 PS6       0.084700
     51 HB           4.0730    -1.5910    -0.0810 h1         1 PS6       0.024200
     52 HBA          3.9270    -0.7540    -1.6330 h1         1 PS6       0.024200
     53 H16         -3.3810    -6.5200    -0.3090 hc         1 PS6       0.012700
     54 H16A        -1.7010    -6.6120     0.2380 hc         1 PS6       0.012700
     55 H17         -2.3940    -7.8800     2.2240 hc         1 PS6      -0.002967
     56 H17A        -4.0900    -7.7420     1.7400 hc         1 PS6      -0.002967
     57 H17B        -2.9640    -8.6920     0.7600 hc         1 PS6      -0.002967
     58 H6          -7.1890     1.6210     1.1820 hc         1 PS6       0.033200
     59 H6A         -7.0240     2.3060    -0.4410 hc         1 PS6       0.033200
     60 H7          -7.2690     4.5820     0.4960 hc         1 PS6       0.029700
     61 H7A         -7.4340     3.8970     2.1180 hc         1 PS6       0.029700
     62 H8          -9.2860     3.3490    -0.2310 hc         1 PS6       0.011700
     63 H8A         -9.4510     2.6640     1.3920 hc         1 PS6       0.011700
     64 H9          -9.6950     4.9400     2.3280 hc         1 PS6       0.016700
     65 H9A         -9.5300     5.6250     0.7060 hc         1 PS6       0.016700
     66 H10        -11.7110     3.7050     1.6020 hc         1 PS6       0.013700
     67 H10A       -11.5460     4.3910    -0.0210 hc         1 PS6       0.013700
     68 H18        -11.9550     5.9820     2.5380 hc         1 PS6       0.015200
     69 H18A       -11.7900     6.6670     0.9160 hc         1 PS6       0.015200
     70 H19        -13.9720     4.7480     1.8130 hc         1 PS6       0.013700
     71 H19A       -13.8070     5.4320     0.1900 hc         1 PS6       0.013700
     72 H20        -14.0520     7.7090     1.1240 hc         1 PS6       0.014700
     73 H20A       -14.2160     7.0250     2.7470 hc         1 PS6       0.014700
     74 H21        -16.0690     6.4750     0.4000 hc         1 PS6       0.013700
     75 H21A       -16.2330     5.7910     2.0230 hc         1 PS6       0.013700
     76 H22        -16.4780     8.0670     2.9570 hc         1 PS6       0.014700
     77 H22A       -16.3130     8.7510     1.3340 hc         1 PS6       0.014700
     78 H23        -18.4930     6.8330     2.2330 hc         1 PS6       0.014700
     79 H23A       -18.3290     7.5160     0.6100 hc         1 PS6       0.014700
     80 H24        -18.7390     9.1100     3.1680 hc         1 PS6       0.011700
     81 H24A       -18.5740     9.7940     1.5440 hc         1 PS6       0.011700
     82 H25        -20.9530     9.6180     2.1850 hc         1 PS6      -0.000967
     83 H25A       -20.5890     8.5510     0.8210 hc         1 PS6      -0.000967
     84 H25B       -20.7560     7.8800     2.4490 hc         1 PS6      -0.000967
     85 HNA          3.4300    -3.5070    -3.6730 hn         1 PS6       0.204467
     86 H26          2.0690    -2.9230    -2.9810 hn         1 PS6       0.204467
     87 HN           3.2420    -1.8960    -3.4720 hn         1 PS6       0.204467
@<TRIPOS>BOND
     1     1     3 1
     2     1     6 1
     3     2     3 1
     4     2    20 1
     5     3     4 1
     6     3     5 1
     7     6     7 1
     8     6    39 1
     9     6    40 1
    10     7     8 1
    11     7    11 1
    12     7    41 1
    13     8    10 1
    14     9    10 2
    15    10    15 1
    16    11    14 1
    17    11    42 1
    18    11    43 1
    19    12    13 2
    20    12    14 1
    21    12    26 1
    22    15    16 1
    23    15    44 1
    24    15    45 1
    25    16    17 1
    26    16    46 1
    27    16    47 1
    28    17    24 1
    29    17    48 1
    30    17    49 1
    31    18    19 1
    32    18    85 1
    33    18    86 1
    34    18    87 1
    35    19    20 1
    36    19    21 1
    37    19    50 1
    38    20    51 1
    39    20    52 1
    40    21    22 1
    41    21    23 1
    42    24    25 1
    43    24    53 1
    44    24    54 1
    45    25    55 1
    46    25    56 1
    47    25    57 1
    48    26    27 1
    49    26    58 1
    50    26    59 1
    51    27    28 1
    52    27    60 1
    53    27    61 1
    54    28    29 1
    55    28    62 1
    56    28    63 1
    57    29    30 1
    58    29    64 1
    59    29    65 1
    60    30    31 1
    61    30    66 1
    62    30    67 1
    63    31    32 1
    64    31    68 1
    65    31    69 1
    66    32    33 1
    67    32    70 1
    68    32    71 1
    69    33    34 1
    70    33    72 1
    71    33    73 1
    72    34    35 1
    73    34    74 1
    74    34    75 1
    75    35    36 1
    76    35    76 1
    77    35    77 1
    78    36    37 1
    79    36    78 1
    80    36    79 1
    81    37    38 1
    82    37    80 1
    83    37    81 1
    84    38    82 1
    85    38    83 1
    86    38    84 1
@<TRIPOS>SUBSTRUCTURE
     1 PS6         1 TEMP              0 ****  ****    0 ROOT
