@<TRIPOS>MOLECULE
molecule
   88    88     1     0     0
SMALL
bcc


@<TRIPOS>ATOM
      1 CAA          0.0000     0.0000     0.0000 c3         1 PS7      -0.080400
      2 CAB          2.2610     0.0000     1.3050 c3         1 PS7      -0.080400
      3 CAC          3.5920    -3.8920   -10.1990 c3         1 PS7      -0.084900
      4 CAD          6.1450    -3.8100   -10.7400 c3         1 PS7      -0.084900
      5 CAE          1.6060     0.3400    -5.7530 c3         1 PS7      -0.124900
      6 CAF          1.3060     0.8140   -13.1000 c3         1 PS7      -0.107900
      7 CAG         -3.3870     2.9840    -7.7130 c3         1 PS7      -0.110900
      8 CAH         -3.1460     1.0320   -11.8230 c3         1 PS7      -0.058100
      9 OAI         -9.2350    -5.6330    -9.2800 o          1 PS7      -0.816833
     10 OAJ         -7.4400    -2.4560   -12.2540 o          1 PS7      -0.854000
     11 OAK         -9.1880    -4.9190   -11.7000 o          1 PS7      -0.816833
     12 OAL        -10.7870    -3.7060   -10.1690 o          1 PS7      -0.816833
     13 OAM         -8.5380    -0.8160   -10.6800 o          1 PS7      -0.854000
     14 CAN          2.1630    -0.0010    -1.1350 c2         1 PS7      -0.546200
     15 CAO          4.5530    -2.2310   -11.7080 c2         1 PS7      -0.561200
     16 CAP          0.0370     1.9090    -4.7340 c2         1 PS7      -0.562200
     17 CAQ          0.9560     0.4490   -10.7120 c2         1 PS7      -0.515200
     18 CAR         -2.9650     0.5920    -7.9530 c2         1 PS7      -0.449200
     19 CAS          1.4090    -0.0010    -2.4400 c3         1 PS7      -0.081200
     20 CAT          3.1620    -1.6800   -11.8910 c3         1 PS7      -0.081200
     21 CAU         -0.6630     1.9820    -6.0660 c3         1 PS7      -0.090200
     22 CAV         -0.4730     0.8810   -10.9140 c3         1 PS7      -0.074200
     23 CAW          1.8700     1.1810    -3.2950 c3         1 PS7      -0.061200
     24 CAX          3.1560    -0.1870   -11.5560 c3         1 PS7      -0.049200
     25 CAY         -2.1340     1.5980    -5.8900 c3         1 PS7      -0.049200
     26 CAZ         -5.2620    -0.7440   -10.8070 c3         1 PS7       0.256400
     27 CBA         -1.4140    -0.1720   -10.3230 c3         1 PS7      -0.030400
     28 OBB         -6.1150    -1.7330   -10.2300 os         1 PS7      -0.590200
     29 OBC         -8.1890    -3.3340   -10.0090 os         1 PS7      -0.713800
     30 CBD          1.5070     0.0000     0.0000 c2         1 PS7      -0.034400
     31 CBE          4.7530    -3.2590   -10.9220 c2         1 PS7      -0.016400
     32 CBF          1.1180     1.1800    -4.6010 c2         1 PS7       0.006600
     33 CBG          1.7650     0.3620   -11.7370 c2         1 PS7      -0.047400
     34 CBH         -2.8340     1.6700    -7.2230 c2         1 PS7      -0.062400
     35 CBI         -3.6660     0.6640    -9.2860 cx         1 PS7      -0.168500
     36 CBJ         -3.9650    -0.6550   -10.0000 cx         1 PS7       0.006300
     37 CBK         -2.8650     0.2680   -10.5280 cx         1 PS7      -0.188000
     38 PBL         -9.3470    -4.4090   -10.3200 p5         1 PS7       1.312900
     39 PBM         -7.5680    -2.0930   -10.8250 p5         1 PS7       1.429800
     40 HAA         -0.3610     0.9210    -0.4410 hc         1 PS7       0.039367
     41 HAAA        -0.3610    -0.8420    -0.5770 hc         1 PS7       0.039367
     42 HAAB        -0.3610    -0.0790     1.0180 hc         1 PS7       0.039367
     43 HAB          1.9830    -0.8730     1.8820 hc         1 PS7       0.039367
     44 HABA         3.3260    -0.0220     1.1070 hc         1 PS7       0.039367
     45 HABB         2.0160     0.8950     1.8630 hc         1 PS7       0.039367
     46 HAC          3.9350    -4.7690    -9.6630 hc         1 PS7       0.042867
     47 HACA         3.1730    -3.1810    -9.4970 hc         1 PS7       0.042867
     48 HACB         2.8340    -4.1810   -10.9170 hc         1 PS7       0.042867
     49 HAD          6.8420    -3.2310   -11.3340 hc         1 PS7       0.042867
     50 HADA         6.1690    -4.8440   -11.0600 hc         1 PS7       0.042867
     51 HADB         6.4230    -3.7490    -9.6950 hc         1 PS7       0.042867
     52 HAE          2.5060    -0.1870    -5.4600 hc         1 PS7       0.052700
     53 HAEA         1.8220     0.9800    -6.6000 hc         1 PS7       0.052700
     54 HAEB         0.8420    -0.3760    -6.0280 hc         1 PS7       0.052700
     55 HAF          2.1330     0.7520   -13.7980 hc         1 PS7       0.037367
     56 HAFA         0.9590     1.8390   -13.0430 hc         1 PS7       0.037367
     57 HAFB         0.4990     0.1770   -13.4390 hc         1 PS7       0.037367
     58 HAG         -2.9010     3.2560    -8.6420 hc         1 PS7       0.038367
     59 HAGA        -4.4530     2.8890    -7.8780 hc         1 PS7       0.038367
     60 HAGB        -3.2040     3.7520    -6.9710 hc         1 PS7       0.038367
     61 HAH         -2.8640     0.4210   -12.6720 hc         1 PS7       0.037700
     62 HAHA        -2.5710     1.9500   -11.8320 hc         1 PS7       0.037700
     63 HAHB        -4.2020     1.2670   -11.8820 hc         1 PS7       0.037700
     64 HAN          1.6970     0.8740    -1.5730 ha         1 PS7       0.333000
     65 HAO          4.0480    -1.5950   -10.9910 ha         1 PS7       0.353000
     66 HAP         -0.6500     1.1430    -5.0730 ha         1 PS7       0.363000
     67 HAQ          0.6790     1.4940   -10.7840 ha         1 PS7       0.280000
     68 HAR         -2.5170     0.9780    -8.8610 ha         1 PS7       0.371000
     69 HAS          0.3480     0.0880    -2.2440 hc         1 PS7       0.060200
     70 HASA         1.6030    -0.9270    -2.9680 hc         1 PS7       0.060200
     71 HAT          2.4790    -2.2010   -11.2320 hc         1 PS7       0.067200
     72 HATA         2.8510    -1.8210   -12.9190 hc         1 PS7       0.067200
     73 HAU         -0.1920     1.2970    -6.7600 hc         1 PS7       0.062700
     74 HAUA        -0.5970     2.9910    -6.4540 hc         1 PS7       0.062700
     75 HAV         -0.6370     1.8300   -10.4190 hc         1 PS7       0.018200
     76 HAVA        -0.6720     0.9870   -11.9740 hc         1 PS7       0.018200
     77 HAW          2.9320     1.0920    -3.4910 hc         1 PS7       0.058700
     78 HAWA         1.6760     2.1060    -2.7670 hc         1 PS7       0.058700
     79 HAX          3.8390     0.3340   -12.2150 hc         1 PS7       0.049200
     80 HAXA         3.4690    -0.0470   -10.5280 hc         1 PS7       0.049200
     81 HAY         -2.6060     2.2840    -5.1970 hc         1 PS7       0.061700
     82 HAYA        -2.2000     0.5890    -5.5020 hc         1 PS7       0.061700
     83 HAZ         -5.7620     0.2170   -10.7940 h1         1 PS7       0.028200
     84 HAZA        -5.0320    -1.0170   -11.8300 h1         1 PS7       0.028200
     85 HBA         -1.2160    -0.2780    -9.2630 hc         1 PS7       0.075200
     86 HBAA        -1.2510    -1.1210   -10.8180 hc         1 PS7       0.075200
     87 HBI         -4.3990     1.4440    -9.4500 hc         1 PS7       0.076700
     88 HBJ         -3.6070    -1.5400    -9.4870 hc         1 PS7       0.115700
@<TRIPOS>BOND
     1     1    30 1
     2     2    30 1
     3     3    31 1
     4     4    31 1
     5     5    32 1
     6     6    33 1
     7     7    34 1
     8     8    37 1
     9     9    38 1
    10    10    39 1
    11    11    38 1
    12    12    38 1
    13    13    39 1
    14    14    19 1
    15    14    30 2
    16    15    20 1
    17    15    31 2
    18    16    21 1
    19    16    32 2
    20    17    22 1
    21    17    33 2
    22    18    34 2
    23    18    35 1
    24    19    23 1
    25    20    24 1
    26    21    25 1
    27    22    27 1
    28    23    32 1
    29    24    33 1
    30    25    34 1
    31    26    28 1
    32    26    36 1
    33    27    37 1
    34    28    39 1
    35    29    38 1
    36    29    39 1
    37    35    36 1
    38    35    37 1
    39    36    37 1
    40     1    40 1
    41     1    41 1
    42     1    42 1
    43     2    43 1
    44     2    44 1
    45     2    45 1
    46     3    46 1
    47     3    47 1
    48     3    48 1
    49     4    49 1
    50     4    50 1
    51     4    51 1
    52     5    52 1
    53     5    53 1
    54     5    54 1
    55     6    55 1
    56     6    56 1
    57     6    57 1
    58     7    58 1
    59     7    59 1
    60     7    60 1
    61     8    61 1
    62     8    62 1
    63     8    63 1
    64    14    64 1
    65    15    65 1
    66    16    66 1
    67    17    67 1
    68    18    68 1
    69    19    69 1
    70    19    70 1
    71    20    71 1
    72    20    72 1
    73    21    73 1
    74    21    74 1
    75    22    75 1
    76    22    76 1
    77    23    77 1
    78    23    78 1
    79    24    79 1
    80    24    80 1
    81    25    81 1
    82    25    82 1
    83    26    83 1
    84    26    84 1
    85    27    85 1
    86    27    86 1
    87    35    87 1
    88    36    88 1
@<TRIPOS>SUBSTRUCTURE
     1 PS7         1 TEMP              0 ****  ****    0 ROOT
