@<TRIPOS>MOLECULE
PS8
   56    59     1     0     0
SMALL
bcc


@<TRIPOS>ATOM
      1 CAA          0.0000     0.0000     0.0000 c3         1 PS8      -0.020400
      2 CAB          4.8400    -0.0000    -1.6020 c3         1 PS8       0.100200
      3 CAC          4.7870     0.0010     1.5110 c3         1 PS8       0.026600
      4 OAD          0.6780     0.9500    -4.4040 o          1 PS8      -0.581300
      5 OAE         -0.0810     1.4290    -2.0710 o          1 PS8      -0.581300
      6 CAH          5.1530     6.5180    -4.0300 ca         1 PS8       0.408200
      7 CAI          4.3050     6.2250    -2.9670 cp         1 PS8      -0.182300
      8 CAJ          3.5420     4.1220    -4.0690 ca         1 PS8      -0.143000
      9 CAK          2.6270     4.7070    -1.9170 ca         1 PS8      -0.143000
     10 CAL          5.0330     8.2390    -1.9100 ca         1 PS8      -0.169300
     11 CAM          8.8050    10.0430    -5.3190 c3         1 PS8       0.122300
     12 CAN          9.4310     9.8860    -2.9860 c3         1 PS8       0.122300
     13 CAO          7.9220     8.8020    -5.1660 c3         1 PS8       0.212300
     14 CAP          8.5490     8.6450    -2.8330 c3         1 PS8       0.212300
     15 NAQ          5.8920     7.6090    -4.0200 nb         1 PS8      -0.625000
     16 NAR          2.2730     0.0000     1.0610 nc         1 PS8      -0.649800
     17 NAS          9.9230     9.9650    -4.3700 n7         1 PS8      -0.578200
     18 NAT          1.8890    -0.0010    -2.4750 nu         1 PS8      -0.347500
     19 CAU          1.5070     0.0000     0.0000 cd         1 PS8       0.385600
     20 CAV          3.6180     0.0000    -0.7190 cc         1 PS8      -0.246600
     21 CAW          2.7670     2.9770    -4.0800 ca         1 PS8       0.056900
     22 CAX          1.8570     3.5620    -1.9370 ca         1 PS8       0.056900
     23 CAY          4.2420     7.1060    -1.8820 ca         1 PS8      -0.050000
     24 CBA          5.8580     8.4650    -3.0090 ca         1 PS8       0.530200
     25 CBB          2.3270    -0.0000    -1.1370 cd         1 PS8      -0.190700
     26 CBC          1.9270     2.6970    -3.0170 ca         1 PS8      -0.160500
     27 NBD          7.4300     8.7230    -3.7840 nh         1 PS8      -0.575300
     28 NBE          3.6090     0.0000     0.6410 na         1 PS8       0.488400
     29 C11          3.4740     4.9940    -2.9840 cp         1 PS8       0.052000
     30 SBF          0.9430     1.2360    -3.0380 sy         1 PS8       1.022200
     31 HAA1        -0.3610    -0.4510    -0.9160 hc         1 PS8       0.025033
     32 HAA2        -0.3610     1.0190     0.0680 hc         1 PS8       0.025033
     33 HAA3        -0.3610    -0.5680     0.8490 hc         1 PS8       0.025033
     34 HAB1         4.5370    -0.0970    -2.6370 hc         1 PS8       0.011033
     35 HAB2         5.4800    -0.8320    -1.3330 hc         1 PS8       0.011033
     36 HAB3         5.3820     0.9290    -1.4690 hc         1 PS8       0.011033
     37 HAC1         5.4040     0.8620     1.2840 h1         1 PS8       0.020700
     38 HAC2         5.3580    -0.9060     1.3470 h1         1 PS8       0.020700
     39 HAC3         4.4710     0.0460     2.5460 h1         1 PS8       0.020700
     40 HAH          5.2080     5.8410    -4.8750 h4         1 PS8      -0.013900
     41 HAY          3.5910     6.9040    -1.0410 ha         1 PS8       0.122000
     42 HAJ          4.1430     4.3780    -4.9340 ha         1 PS8       0.128000
     43 HAK          2.5390     5.4050    -1.0930 ha         1 PS8       0.128000
     44 HAL          5.0100     8.9430    -1.0870 ha         1 PS8       0.117000
     45 HAM1         9.1930    10.0860    -6.3300 h1         1 PS8       0.008950
     46 HAM2         8.2180    10.9300    -5.1130 h1         1 PS8       0.008950
     47 HAO1         8.5030     7.9160    -5.3930 h1         1 PS8       0.017450
     48 HAO2         7.0810     8.8730    -5.8440 h1         1 PS8       0.017450
     49 HAS         10.5040    10.7730    -4.4720 hn         1 PS8       0.249800
     50 HAN1         8.8510    10.7720    -2.7590 h1         1 PS8       0.008950
     51 HAN2        10.2730     9.8150    -2.3080 h1         1 PS8       0.008950
     52 HAP1         8.1600     8.6020    -1.8230 h1         1 PS8       0.017450
     53 HAP2         9.1350     7.7580    -3.0390 h1         1 PS8       0.017450
     54 HAT          2.1150    -0.7700    -3.0750 hn         1 PS8       0.338800
     55 Cl1          2.8480     1.8910    -5.4310 cl         1 PS8       0.052600
     56 Cl2          0.8010     3.2020    -0.6070 cl         1 PS8       0.052600
@<TRIPOS>BOND
     1     1    19 1   
     2     1    31 1   
     3     1    32 1   
     4     1    33 1   
     5     2    20 1   
     6     2    34 1   
     7     2    35 1   
     8     2    36 1   
     9     3    28 1   
    10     3    37 1   
    11     3    38 1   
    12     3    39 1   
    13     4    30 2   
    14     5    30 2   
    15     6     7 ar  
    16     6    15 ar  
    17     6    40 1   
    18     7    23 ar  
    19     7    29 1   
    20     8    21 ar  
    21     8    29 ar  
    22     8    42 1   
    23     9    22 ar  
    24     9    29 ar  
    25     9    43 1   
    26    10    23 ar  
    27    10    24 ar  
    28    10    44 1   
    29    11    13 1   
    30    11    17 1   
    31    11    45 1   
    32    11    46 1   
    33    12    14 1   
    34    12    17 1   
    35    12    50 1   
    36    12    51 1   
    37    13    27 1   
    38    13    47 1   
    39    13    48 1   
    40    14    27 1   
    41    14    52 1   
    42    14    53 1   
    43    15    24 ar  
    44    16    19 2   
    45    16    28 1   
    46    17    49 1   
    47    18    25 1   
    48    18    30 1   
    49    18    54 1   
    50    19    25 1   
    51    20    25 2   
    52    20    28 1   
    53    21    26 ar  
    54    21    55 1   
    55    22    26 ar  
    56    22    56 1   
    57    23    41 1   
    58    24    27 1   
    59    26    30 1   
@<TRIPOS>SUBSTRUCTURE
     1 PS8         1 TEMP              0 ****  ****    0 ROOT
