@<TRIPOS>MOLECULE
molecule
    8     8     1     0     0
SMALL
bcc


@<TRIPOS>ATOM
      1 S2           1.9170     0.0090     1.0200 ss         1 PS9       0.000125
      2 S3           1.6600    -1.3160    -0.5490 ss         1 PS9       0.000125
      3 S4           0.0210    -2.3780     0.0320 ss         1 PS9       0.000125
      4 S5          -1.6370    -1.3440    -0.5490 ss         1 PS9       0.000125
      5 S6          -1.9170    -0.0240     1.0200 ss         1 PS9       0.000125
      6 S7          -1.6340     1.7860     0.0670 ss         1 PS9       0.000125
      7 S8          -0.0130     1.4530    -1.1090 ss         1 PS9       0.000125
      8 S9           1.6030     1.8140     0.0680 ss         1 PS9       0.000125
@<TRIPOS>BOND
     1     8     1 1
     2     1     2 1
     3     2     3 1
     4     3     4 1
     5     5     4 1
     6     6     5 1
     7     7     6 1
     8     8     7 1
@<TRIPOS>SUBSTRUCTURE
     1 PS9         1 TEMP              0 ****  ****    0 ROOT
