@<TRIPOS>MOLECULE
PSB
   57    61     1     0     0
SMALL
bcc


@<TRIPOS>ATOM
      1 N1           0.0000     0.0000     0.0000 nv         1 PSB      -0.634500
      2 C2           1.3830     0.0000     0.0000 ca         1 PSB       0.734900
      3 N3           2.0200     0.0000     1.1710 nb         1 PSB      -0.700000
      4 C4           3.3400    -0.0000     1.2390 ca         1 PSB       0.714600
      5 O5           3.9700    -0.0010     2.4360 oh         1 PSB      -0.594300
      6 C6           4.0770    -0.0010     0.0320 ca         1 PSB      -0.363600
      7 N7           5.3550     0.0000    -0.3050 nc         1 PSB      -0.396400
      8 N8           5.4400    -0.0000    -1.5910 na         1 PSB       0.984000
      9 N9           4.2780    -0.0000    -2.1440 nc         1 PSB      -0.424400
     10 C10          3.3570    -0.0010    -1.1980 ca         1 PSB       0.291300
     11 N11          2.0150    -0.0060    -1.1560 nb         1 PSB      -0.590000
     12 C12          6.6490     0.0010    -2.2990 ca         1 PSB      -0.224200
     13 C13          7.8570     0.0010    -1.6120 ca         1 PSB      -0.044000
     14 C14          9.0530     0.0010    -2.3050 ca         1 PSB      -0.107000
     15 C15          9.0540     0.0020    -3.6860 ca         1 PSB      -0.058000
     16 C16          7.8460     0.0020    -4.3850 ca         1 PSB      -0.149600
     17 C17          6.6400    -0.0040    -3.6840 ca         1 PSB       0.004000
     18 C18          7.8450     0.0020    -5.8630 c          1 PSB       0.589700
     19 O19          6.7930     0.0010    -6.4700 o          1 PSB      -0.637100
     20 N20          9.0120     0.0030    -6.5370 ns         1 PSB      -0.178900
     21 C21          9.0110     0.0030    -8.0030 c3         1 PSB       0.089300
     22 C22         10.4250     0.1320    -8.5070 ca         1 PSB      -0.073300
     23 C23         11.0970    -0.9800    -8.9760 ca         1 PSB      -0.100000
     24 C24         12.3950    -0.8620    -9.4380 ca         1 PSB      -0.071000
     25 C25         13.0260     0.3680    -9.4310 ca         1 PSB      -0.110000
     26 C26         12.3610     1.4840    -8.9630 ca         1 PSB      -0.041000
     27 C27         11.0530     1.3700    -8.5030 ca         1 PSB       0.019900
     28 S28         10.2030     2.7910    -7.9040 ss         1 PSB      -0.301800
     29 C29          9.1280     3.1000    -9.2670 ca         1 PSB       0.049900
     30 C30          9.2500     2.3540   -10.4320 ca         1 PSB      -0.125000
     31 C31          8.4070     2.5990   -11.4980 ca         1 PSB      -0.090000
     32 C32          7.4420     3.5850   -11.4050 ca         1 PSB      -0.097000
     33 C33          7.3170     4.3300   -10.2460 ca         1 PSB      -0.068000
     34 C34          8.1530     4.0860    -9.1750 ca         1 PSB      -0.068300
     35 C35          8.0180     4.8970    -7.9130 c3         1 PSB       0.273700
     36 O36          6.9630     5.8490    -8.0690 oh         1 PSB      -0.593800
     37 HN11        -0.5000     0.8670     0.0020 hn         1 PSB       0.280300
     38 HN12        -0.5000    -0.8670    -0.0030 hn         1 PSB       0.280300
     39 HO5          3.6830    -0.7430     2.9410 ho         1 PSB       0.419000
     40 H13          7.8620     0.0010    -0.5280 ha         1 PSB       0.135000
     41 H14          9.9910     0.0010    -1.7640 ha         1 PSB       0.115000
     42 H15          9.9930     0.0050    -4.2260 ha         1 PSB       0.108000
     43 H17          5.6990    -0.0040    -4.2220 ha         1 PSB       0.162000
     44 H20          9.8780    -0.0430    -6.0380 hn         1 PSB       0.180500
     45 H211         8.5820    -0.9240    -8.3640 h1         1 PSB       0.044700
     46 H212         8.4220     0.8380    -8.3630 h1         1 PSB       0.044700
     47 H23         10.6060    -1.9460    -8.9830 ha         1 PSB       0.115000
     48 H24         12.9190    -1.7360    -9.8060 ha         1 PSB       0.107000
     49 H25         14.0430     0.4560    -9.7920 ha         1 PSB       0.111000
     50 H26         12.8550     2.4480    -8.9600 ha         1 PSB       0.123000
     51 H30         10.0060     1.5810   -10.5050 ha         1 PSB       0.124000
     52 H31          8.5010     2.0180   -12.4070 ha         1 PSB       0.103000
     53 H32          6.7830     3.7770   -12.2440 ha         1 PSB       0.104000
     54 H33          6.5590     5.1000   -10.1760 ha         1 PSB       0.129000
     55 H351         8.9480     5.4180    -7.7170 h1         1 PSB       0.005200
     56 H352         7.7910     4.2390    -7.0830 h1         1 PSB       0.005200
     57 H36          6.8780     6.3560    -7.2790 ho         1 PSB       0.393000
@<TRIPOS>BOND
     1     1     2 1   
     2     1    37 1   
     3     1    38 1   
     4     2     3 ar  
     5     2    11 ar  
     6     3     4 ar  
     7     4     5 1   
     8     4     6 ar  
     9     5    39 1   
    10     6     7 2   
    11     6    10 ar  
    12     7     8 1   
    13     8     9 1   
    14     8    12 1   
    15     9    10 2   
    16    10    11 ar  
    17    12    13 ar  
    18    12    17 ar  
    19    13    14 ar  
    20    13    40 1   
    21    14    15 ar  
    22    14    41 1   
    23    15    16 ar  
    24    15    42 1   
    25    16    17 ar  
    26    16    18 1   
    27    17    43 1   
    28    18    19 2   
    29    18    20 1   
    30    20    21 1   
    31    20    44 1   
    32    21    22 1   
    33    21    45 1   
    34    21    46 1   
    35    22    23 ar  
    36    22    27 ar  
    37    23    24 ar  
    38    23    47 1   
    39    24    25 ar  
    40    24    48 1   
    41    25    26 ar  
    42    25    49 1   
    43    26    27 ar  
    44    26    50 1   
    45    27    28 1   
    46    28    29 1   
    47    29    30 ar  
    48    29    34 ar  
    49    30    31 ar  
    50    30    51 1   
    51    31    32 ar  
    52    31    52 1   
    53    32    33 ar  
    54    32    53 1   
    55    33    34 ar  
    56    33    54 1   
    57    34    35 1   
    58    35    36 1   
    59    35    55 1   
    60    35    56 1   
    61    36    57 1   
@<TRIPOS>SUBSTRUCTURE
     1 PSB         1 TEMP              0 ****  ****    0 ROOT
