@<TRIPOS>MOLECULE
PSC
  132   131     1     0     0
SMALL
bcc


@<TRIPOS>ATOM
      1 P            0.0000     0.0000     0.0000 p5         1 PSC       0.893800
      2 N           -2.1330     1.3610     3.5580 n4         1 PSC       0.061200
      3 C01          4.1000     1.2320    -0.5310 c3         1 PSC       0.238400
      4 C02          3.5510     0.1250    -1.4340 c3         1 PSC       0.168100
      5 C03          2.0230     0.1190    -1.3630 c3         1 PSC       0.225400
      6 C04         -1.9590     0.1200     1.4540 c3         1 PSC       0.228400
      7 C05         -2.5350     0.1260     2.8710 c3         1 PSC      -0.033200
      8 C06         -2.6680     2.5210     2.8320 c3         1 PSC       0.009433
      9 C07         -2.6620     1.3540     4.9280 c3         1 PSC       0.009433
     10 C08         -0.6670     1.4430     3.6000 c3         1 PSC       0.009433
     11 O01          4.0610    -1.1600    -0.9900 os         1 PSC      -0.403900
     12 O04          4.6770     2.8380     1.5360 o          1 PSC      -0.610000
     13 O11          1.6100     0.0000     0.0000 os         1 PSC      -0.444200
     14 O12         -0.5360     0.0000     1.5180 os         1 PSC      -0.489200
     15 O13         -0.5380    -1.3140    -0.7590 o          1 PSC      -0.660500
     16 O14         -0.4930     1.2090    -0.6970 o          1 PSC      -0.660500
     17 C1           4.2480    -2.1510    -1.8750 c          1 PSC       0.700100
     18 C2           4.7770    -3.4850    -1.4130 c3         1 PSC      -0.067400
     19 C3           4.8950    -4.4290    -2.6110 c3         1 PSC      -0.021400
     20 C4           5.4320    -5.7830    -2.1420 c3         1 PSC      -0.030400
     21 C5           5.5500    -6.7270    -3.3400 c3         1 PSC      -0.027400
     22 C6           6.0880    -8.0810    -2.8720 c3         1 PSC      -0.029400
     23 C7           6.2060    -9.0250    -4.0690 c3         1 PSC      -0.023400
     24 C8           6.7430   -10.3780    -3.6010 c3         1 PSC      -0.004200
     25 C9           6.8590   -11.3090    -4.7810 c2         1 PSC      -0.156200
     26 C10          7.9900   -11.9250    -5.0200 c2         1 PSC      -0.155200
     27 C11          9.1120   -11.8600    -4.0150 c3         1 PSC       0.040000
     28 C12          9.5630   -13.2560    -3.6740 c2         1 PSC      -0.154200
     29 C13         10.8220   -13.5900    -3.8100 c2         1 PSC      -0.164200
     30 C14         11.2730   -14.9860    -3.4680 c3         1 PSC       0.016800
     31 C15         11.9910   -15.5990    -4.6730 c3         1 PSC      -0.025400
     32 C16         12.4490   -17.0170    -4.3260 c3         1 PSC      -0.030400
     33 C17         13.1670   -17.6290    -5.5300 c3         1 PSC      -0.028400
     34 C18         13.6250   -19.0480    -5.1830 c3         1 PSC       0.005900
     35 C19          3.9330     1.9200     1.7840 c          1 PSC       0.689100
     36 C20          3.3970     1.7410     3.1810 c3         1 PSC      -0.066400
     37 C21          3.9460     2.8470     4.0830 c3         1 PSC      -0.024400
     38 C22          3.4020     2.6640     5.5010 c3         1 PSC      -0.026400
     39 C23          3.9500     3.7720     6.4040 c3         1 PSC      -0.028400
     40 C24          3.4070     3.5890     7.8230 c3         1 PSC      -0.028400
     41 C25          3.9550     4.6960     8.7250 c3         1 PSC      -0.029400
     42 C26          3.4110     4.5130    10.1440 c3         1 PSC      -0.028400
     43 C27          3.9600     5.6210    11.0470 c3         1 PSC      -0.029400
     44 C28          3.4160     5.4380    12.4650 c3         1 PSC      -0.029400
     45 C29          3.9640     6.5450    13.3680 c3         1 PSC      -0.029400
     46 C30          3.4200     6.3620    14.7860 c3         1 PSC      -0.029400
     47 C31          3.9690     7.4700    15.6890 c3         1 PSC      -0.029400
     48 C32          3.4250     7.2870    17.1070 c3         1 PSC      -0.030400
     49 C33          3.9730     8.3940    18.0110 c3         1 PSC      -0.028400
     50 C34          3.4290     8.2110    19.4290 c3         1 PSC       0.006900
     51 H011         3.7910     2.1970    -0.9150 h1         1 PSC       0.009200
     52 H012         5.1820     1.1790    -0.5130 h1         1 PSC       0.009200
     53 H02          3.8650     0.3040    -2.4560 h1         1 PSC       0.038700
     54 H031         1.6380    -0.7190    -1.9310 h1         1 PSC       0.027700
     55 H032         1.6390     1.0430    -1.7770 h1         1 PSC       0.027700
     56 H041        -2.3680    -0.7170     0.9010 h1         1 PSC       0.047200
     57 H042        -2.2210     1.0450     0.9530 h1         1 PSC       0.047200
     58 H051        -3.6160     0.0760     2.8220 hx         1 PSC       0.065700
     59 H052        -2.1590    -0.7300     3.4170 hx         1 PSC       0.065700
     60 H061        -3.6690     2.2990     2.4820 hx         1 PSC       0.070700
     61 H062        -2.6990     3.3780     3.4940 hx         1 PSC       0.070700
     62 H063        -2.0300     2.7430     1.9840 hx         1 PSC       0.070700
     63 H071        -3.7420     1.2780     4.8980 hx         1 PSC       0.070700
     64 H072        -2.2550     0.5080     5.4680 hx         1 PSC       0.070700
     65 H073        -2.3780     2.2720     5.4290 hx         1 PSC       0.070700
     66 H081        -0.2540     0.4520     3.7450 hx         1 PSC       0.070700
     67 H082        -0.3010     1.8530     2.6660 hx         1 PSC       0.070700
     68 H083        -0.3640     2.0840     4.4190 hx         1 PSC       0.070700
     69 H21          4.0980    -3.9090    -0.6840 hc         1 PSC       0.033200
     70 H22          5.7530    -3.3500    -0.9620 hc         1 PSC       0.033200
     71 H31          3.9190    -4.5650    -3.0610 hc         1 PSC       0.030700
     72 H32          5.5740    -4.0040    -3.3400 hc         1 PSC       0.030700
     73 H41          4.7540    -6.2080    -1.4130 hc         1 PSC       0.011700
     74 H42          6.4080    -5.6470    -1.6920 hc         1 PSC       0.011700
     75 H51          4.5740    -6.8620    -3.7900 hc         1 PSC       0.017200
     76 H52          6.2290    -6.3020    -4.0700 hc         1 PSC       0.017200
     77 H61          5.4090    -8.5060    -2.1420 hc         1 PSC       0.012700
     78 H62          7.0640    -7.9450    -2.4210 hc         1 PSC       0.012700
     79 H71          6.8840    -8.6000    -4.7990 hc         1 PSC       0.016700
     80 H72          5.2300    -9.1600    -4.5200 hc         1 PSC       0.016700
     81 H81          6.0650   -10.8040    -2.8710 hc         1 PSC       0.025700
     82 H82          7.7190   -10.2430    -3.1500 hc         1 PSC       0.025700
     83 H9           6.0550   -11.3590    -5.5050 ha         1 PSC       0.103000
     84 H10          8.0700   -12.5930    -5.8690 ha         1 PSC       0.103000
     85 H111         8.7640   -11.3630    -3.1170 hc         1 PSC       0.028700
     86 H112         9.9420   -11.3050    -4.4360 hc         1 PSC       0.028700
     87 H12          8.8510   -13.9750    -3.2860 ha         1 PSC       0.106000
     88 H1          11.5480   -12.8490    -4.1240 ha         1 PSC       0.106000
     89 H141        11.9500   -14.9510    -2.6230 hc         1 PSC       0.016200
     90 H142        10.4110   -15.5920    -3.2150 hc         1 PSC       0.016200
     91 H151        11.3140   -15.6350    -5.5180 hc         1 PSC       0.016200
     92 H152        12.8530   -14.9940    -4.9260 hc         1 PSC       0.016200
     93 H161        11.5870   -17.6230    -4.0730 hc         1 PSC       0.014200
     94 H162        13.1260   -16.9810    -3.4810 hc         1 PSC       0.014200
     95 H171        12.4900   -17.6650    -6.3750 hc         1 PSC       0.012200
     96 H172        14.0290   -17.0240    -5.7830 hc         1 PSC       0.012200
     97 H181        12.7660   -19.6470    -4.9070 hc         1 PSC      -0.000300
     98 H182        14.3210   -19.0100    -4.3540 hc         1 PSC      -0.000300
     99 H183        14.1120   -19.4900    -6.0440 hc         1 PSC      -0.000300
    100 H201         2.3150     1.7930     3.1620 hc         1 PSC       0.027700
    101 H202         3.7050     0.7760     3.5650 hc         1 PSC       0.027700
    102 H211         5.0280     2.7950     4.1020 hc         1 PSC       0.032200
    103 H212         3.6380     3.8120     3.6990 hc         1 PSC       0.032200
    104 H221         2.3200     2.7160     5.4820 hc         1 PSC       0.004200
    105 H222         3.7100     1.6990     5.8850 hc         1 PSC       0.004200
    106 H231         3.6410     4.7370     6.0210 hc         1 PSC       0.019700
    107 H232         5.0320     3.7200     6.4220 hc         1 PSC       0.019700
    108 H241         2.3250     3.6400     7.8050 hc         1 PSC       0.009700
    109 H242         3.7170     2.6240     8.2070 hc         1 PSC       0.009700
    110 H251         3.6450     5.6610     8.3420 hc         1 PSC       0.016700
    111 H252         5.0370     4.6450     8.7440 hc         1 PSC       0.016700
    112 H261         3.7200     3.5480    10.5270 hc         1 PSC       0.012200
    113 H262         2.3290     4.5650    10.1260 hc         1 PSC       0.012200
    114 H271         5.0420     5.5690    11.0660 hc         1 PSC       0.015700
    115 H272         3.6510     6.5860    10.6630 hc         1 PSC       0.015700
    116 H281         2.3340     5.4900    12.4460 hc         1 PSC       0.013700
    117 H282         3.7240     4.4730    12.8490 hc         1 PSC       0.013700
    118 H291         3.6560     7.5100    12.9850 hc         1 PSC       0.015200
    119 H292         5.0460     6.4930    13.3870 hc         1 PSC       0.015200
    120 H301         3.7290     5.3970    15.1700 hc         1 PSC       0.014200
    121 H302         2.3380     6.4140    14.7680 hc         1 PSC       0.014200
    122 H311         5.0510     7.4180    15.7080 hc         1 PSC       0.015200
    123 H312         3.6600     8.4350    15.3060 hc         1 PSC       0.015200
    124 H321         3.7330     6.3220    17.4910 hc         1 PSC       0.014200
    125 H322         2.3430     7.3390    17.0890 hc         1 PSC       0.014200
    126 H331         3.6650     9.3590    17.6270 hc         1 PSC       0.012200
    127 H332         5.0550     8.3420    18.0290 hc         1 PSC       0.012200
    128 H341         3.8000     9.0070    20.0630 hc         1 PSC       0.000367
    129 H342         2.3470     8.2420    19.4070 hc         1 PSC       0.000367
    130 H343         3.7560     7.2560    19.8200 hc         1 PSC       0.000367
    131 O03          3.5840     1.0580     0.8150 os         1 PSC      -0.361900
    132 O02          3.9910    -1.9740    -3.0420 o          1 PSC      -0.596000
@<TRIPOS>BOND
     1     1    13 1   
     2     1    14 1   
     3     1    15 1   
     4     1    16 1   
     5     2     7 1   
     6     2     8 1   
     7     2     9 1   
     8     2    10 1   
     9     3     4 1   
    10     3    51 1   
    11     3    52 1   
    12     3   131 1   
    13     4     5 1   
    14     4    11 1   
    15     4    53 1   
    16     5    13 1   
    17     5    54 1   
    18     5    55 1   
    19     6     7 1   
    20     6    14 1   
    21     6    56 1   
    22     6    57 1   
    23     7    58 1   
    24     7    59 1   
    25     8    60 1   
    26     8    61 1   
    27     8    62 1   
    28     9    63 1   
    29     9    64 1   
    30     9    65 1   
    31    10    66 1   
    32    10    67 1   
    33    10    68 1   
    34    11    17 1   
    35    12    35 2   
    36    17    18 1   
    37    17   132 2   
    38    18    19 1   
    39    18    69 1   
    40    18    70 1   
    41    19    20 1   
    42    19    71 1   
    43    19    72 1   
    44    20    21 1   
    45    20    73 1   
    46    20    74 1   
    47    21    22 1   
    48    21    75 1   
    49    21    76 1   
    50    22    23 1   
    51    22    77 1   
    52    22    78 1   
    53    23    24 1   
    54    23    79 1   
    55    23    80 1   
    56    24    25 1   
    57    24    81 1   
    58    24    82 1   
    59    25    26 2   
    60    25    83 1   
    61    26    27 1   
    62    26    84 1   
    63    27    28 1   
    64    27    85 1   
    65    27    86 1   
    66    28    29 2   
    67    28    87 1   
    68    29    30 1   
    69    29    88 1   
    70    30    31 1   
    71    30    89 1   
    72    30    90 1   
    73    31    32 1   
    74    31    91 1   
    75    31    92 1   
    76    32    33 1   
    77    32    93 1   
    78    32    94 1   
    79    33    34 1   
    80    33    95 1   
    81    33    96 1   
    82    34    97 1   
    83    34    98 1   
    84    34    99 1   
    85    35    36 1   
    86    35   131 1   
    87    36    37 1   
    88    36   100 1   
    89    36   101 1   
    90    37    38 1   
    91    37   102 1   
    92    37   103 1   
    93    38    39 1   
    94    38   104 1   
    95    38   105 1   
    96    39    40 1   
    97    39   106 1   
    98    39   107 1   
    99    40    41 1   
   100    40   108 1   
   101    40   109 1   
   102    41    42 1   
   103    41   110 1   
   104    41   111 1   
   105    42    43 1   
   106    42   112 1   
   107    42   113 1   
   108    43    44 1   
   109    43   114 1   
   110    43   115 1   
   111    44    45 1   
   112    44   116 1   
   113    44   117 1   
   114    45    46 1   
   115    45   118 1   
   116    45   119 1   
   117    46    47 1   
   118    46   120 1   
   119    46   121 1   
   120    47    48 1   
   121    47   122 1   
   122    47   123 1   
   123    48    49 1   
   124    48   124 1   
   125    48   125 1   
   126    49    50 1   
   127    49   126 1   
   128    49   127 1   
   129    50   128 1   
   130    50   129 1   
   131    50   130 1   
@<TRIPOS>SUBSTRUCTURE
     1 PSC         1 TEMP              0 ****  ****    0 ROOT
