@<TRIPOS>MOLECULE
PSD
   51    54     1     0     0
SMALL
bcc


@<TRIPOS>ATOM
      1 CB           0.0000     0.0000     0.0000 c3         1 PSD      -0.041400
      2 CG           1.5420     0.0000     0.0000 c3         1 PSD      -0.059400
      3 C           -1.6220    -0.8570     1.7070 c          1 PSD       0.628100
      4 O           -1.4980    -2.0420     1.9300 o          1 PSD      -0.628100
      5 N            0.7710    -0.5790     2.1960 n7         1 PSD      -0.585200
      6 CD           1.9430     0.0000     1.4910 c3         1 PSD       0.143800
      7 CA          -0.4020     0.0000     1.4910 c3         1 PSD       0.024500
      8 N10         -2.8500    -0.3060     1.6520 ns         1 PSD      -0.301900
      9 P           -4.1780    -1.2380     1.8880 p5         1 PSD       0.732800
     10 O1P         -5.3940    -0.4030     1.7770 o          1 PSD      -0.619500
     11 O2P         -4.2230    -2.4000     0.7720 o          1 PSD      -0.619500
     12 O5'         -4.1140    -1.9030     3.3520 os         1 PSD      -0.391200
     13 C5'         -4.0770    -0.8290     4.2920 c3         1 PSD       0.224400
     14 C4'         -4.0160    -1.3950     5.7120 c3         1 PSD       0.158100
     15 O4'         -2.8160    -2.1780     5.8890 os         1 PSD      -0.362600
     16 C1'         -2.6070    -2.2370     7.3170 c3         1 PSD       0.133800
     17 N9          -1.2100    -2.5640     7.6150 na         1 PSD       0.218000
     18 C4          -0.7480    -3.1950     8.7410 ca         1 PSD       0.233800
     19 N3          -1.3100    -3.6870     9.8410 nb         1 PSD      -0.619000
     20 C2          -0.5760    -4.2550    10.7740 ca         1 PSD       0.633900
     21 N1           0.7350    -4.3670    10.6730 nb         1 PSD      -0.696000
     22 C6           1.3860    -3.9060     9.6100 ca         1 PSD       0.582200
     23 N6           2.7610    -4.0280     9.5130 nv         1 PSD      -0.595500
     24 C5           0.6470    -3.2850     8.5890 ca         1 PSD      -0.195200
     25 N7           0.9540    -2.7230     7.3960 nc         1 PSD      -0.515100
     26 C8          -0.1340    -2.2960     6.8250 cd         1 PSD       0.287700
     27 C2'         -2.9490    -0.8210     7.8270 c3         1 PSD       0.118100
     28 O2'         -3.6130    -0.8840     9.0900 oh         1 PSD      -0.546800
     29 C3'         -3.8960    -0.2520     6.7450 c3         1 PSD       0.128100
     30 O3'         -5.1740     0.0510     7.3050 oh         1 PSD      -0.552800
     31 HCB1        -0.3750     0.8910    -0.4890 hc         1 PSD       0.026700
     32 HCB2        -0.3750    -0.8910    -0.4890 hc         1 PSD       0.026700
     33 HCG1         1.9170    -0.8910    -0.4890 hc         1 PSD       0.010700
     34 HCG2         1.9170     0.8910    -0.4890 hc         1 PSD       0.010700
     35 HN           0.7710    -1.5730     2.0820 hn         1 PSD       0.287800
     36 HCD1         2.1250     1.0120     1.8310 h1         1 PSD       0.010700
     37 HCD2         2.8180    -0.6200     1.6440 h1         1 PSD       0.010700
     38 HCA         -0.5800     1.0130     1.8310 h1         1 PSD       0.030700
     39 HN01        -2.9530     0.6650     1.4330 hn         1 PSD       0.177500
     40 H5'1        -3.2020    -0.2190     4.1080 h1         1 PSD      -0.002800
     41 H5'2        -4.9690    -0.2240     4.1830 h1         1 PSD      -0.002800
     42 HC'4        -4.8910    -1.9980     5.9210 h1         1 PSD       0.047700
     43 HC'1        -3.2740    -2.9660     7.7620 h2         1 PSD       0.067700
     44 HC2         -1.0660    -4.6450    11.6580 h5         1 PSD      -0.008900
     45 HN61         3.3360    -3.2090     9.4900 hn         1 PSD       0.273800
     46 HN62         3.1830    -4.9360     9.4940 hn         1 PSD       0.273800
     47 HC8         -0.1780    -1.8010     5.8620 h5         1 PSD       0.057800
     48 HC'2        -2.0510    -0.2190     7.8950 h1         1 PSD       0.009700
     49 HO'2        -3.3010    -0.1880     9.6440 ho         1 PSD       0.382000
     50 HC'3        -3.4590     0.6260     6.2850 h1         1 PSD       0.013700
     51 HO'3        -5.3290     0.9800     7.2510 ho         1 PSD       0.381000
@<TRIPOS>BOND
     1     1     2 1   
     2     1     7 1   
     3     1    31 1   
     4     1    32 1   
     5     2     6 1   
     6     2    33 1   
     7     2    34 1   
     8     3     4 2   
     9     3     7 1   
    10     3     8 1   
    11     5     6 1   
    12     5     7 1   
    13     5    35 1   
    14     6    36 1   
    15     6    37 1   
    16     7    38 1   
    17     8     9 1   
    18     8    39 1   
    19     9    10 1   
    20     9    11 1   
    21     9    12 1   
    22    12    13 1   
    23    13    14 1   
    24    13    40 1   
    25    13    41 1   
    26    14    15 1   
    27    14    29 1   
    28    14    42 1   
    29    15    16 1   
    30    16    17 1   
    31    16    27 1   
    32    16    43 1   
    33    17    18 1   
    34    17    26 1   
    35    18    19 ar  
    36    18    24 ar  
    37    19    20 ar  
    38    20    21 ar  
    39    20    44 1   
    40    21    22 ar  
    41    22    23 1   
    42    22    24 ar  
    43    23    45 1   
    44    23    46 1   
    45    24    25 1   
    46    25    26 2   
    47    26    47 1   
    48    27    28 1   
    49    27    29 1   
    50    27    48 1   
    51    28    49 1   
    52    29    30 1   
    53    29    50 1   
    54    30    51 1   
@<TRIPOS>SUBSTRUCTURE
     1 PSD         1 TEMP              0 ****  ****    0 ROOT
