@<TRIPOS>MOLECULE
PSE
   18    17     1     0     0
SMALL
bcc


@<TRIPOS>ATOM
      1 N2          0.1920    0.3980    0.1630 n3        1 PSE     -0.931800
      2 C2          1.5910   -0.0040    0.1380 c3        1 PSE      0.085500
      3 C1          2.2350    0.1030    1.5300 c3        1 PSE      0.136400
      4 O1          1.6590   -0.7720    2.4910 oh        1 PSE     -0.659800
      5 C3          2.4910    0.7900   -0.8600 c3        1 PSE      0.219400
      6 O1P         1.9860    0.7600   -2.1290 os        1 PSE     -0.563200
      7 O2P         2.7220    3.1560   -2.5110 o         1 PSE     -0.932833
      8 O3P         1.0490    2.0580   -4.1140 o         1 PSE     -0.932833
      9 O4P         0.3840    2.5800   -1.6890 o         1 PSE     -0.932833
     10 P           1.4770    2.3340   -2.7020 p5        1 PSE      1.315900
     11 HN21       -0.2030    0.1620   -0.7330 hn        1 PSE      0.375300
     12 HN22        0.1460    1.4070    0.2110 hn        1 PSE      0.375300
     13 H2          1.6190   -1.0930   -0.1640 h1        1 PSE      0.020700
     14 H11         3.3130   -0.2040    1.4740 h1        1 PSE      0.023200
     15 H12         2.1700    1.1540    1.9200 h1        1 PSE      0.023200
     16 HO1         0.7100   -0.7910    2.3210 ho        1 PSE      0.409000
     17 H31         2.6050    1.8480   -0.4880 h1        1 PSE     -0.015300
     18 H32         3.5060    0.2870   -0.8330 h1        1 PSE     -0.015300
@<TRIPOS>BOND
     1    1    2 1   
     2    1   11 1   
     3    1   12 1   
     4    2    3 1   
     5    2    5 1   
     6    2   13 1   
     7    3    4 1   
     8    3   14 1   
     9    3   15 1   
    10    4   16 1   
    11    5    6 1   
    12    5   17 1   
    13    5   18 1   
    14    6   10 1   
    15    7   10 1   
    16    8   10 1   
    17    9   10 1   
@<TRIPOS>SUBSTRUCTURE
     1 PSE         1 TEMP              0 ****  ****    0 ROOT
