@<TRIPOS>MOLECULE
molecule
   63    62     1     0     0
SMALL
bcc


@<TRIPOS>ATOM
      1 O2           0.0000     0.0000     0.0000 os         1 PSF      -0.548200
      2 O1           1.9860    -1.4940    -0.5050 os         1 PSF      -0.540200
      3 P            1.6170     0.0000     0.0000 p5         1 PSF       1.306800
      4 O4           1.9900     0.0000     1.5760 o          1 PSF      -0.803000
      5 O3           2.2570     1.1120    -0.7810 o          1 PSF      -0.803000
      6 C2          -0.6730    -1.0260     0.7200 c3         1 PSF       0.155400
      7 C3          -2.1810    -0.8440     0.5920 c3         1 PSF       0.143100
      8 O11         -2.5320    -0.8840    -0.7930 os         1 PSF      -0.408900
      9 O12         -1.6740    -3.0200    -0.9520 o          1 PSF      -0.515000
     10 C1          -2.2180    -2.0420    -1.4480 c          1 PSF       0.644100
     11 C4          -2.6290     0.5000     1.1520 c3         1 PSF       0.137400
     12 C5          -4.5920     1.7910     1.4380 c          1 PSF       0.637100
     13 O51         -3.9810     2.7080     1.9700 o          1 PSF      -0.529000
     14 O52         -4.0450     0.6260     0.9790 os         1 PSF      -0.423900
     15 C6          -6.0770     1.7830     1.1510 c3         1 PSF      -0.140400
     16 C7          -6.7740     3.0860     1.5440 c3         1 PSF      -0.074400
     17 C13         -2.6820    -1.9370    -2.8840 c3         1 PSF      -0.128400
     18 C14         -1.9660    -0.8390    -3.6700 c3         1 PSF      -0.070400
     19 C15         -0.4510    -1.0600    -3.7410 c3         1 PSF      -0.081400
     20 N            4.7550    -3.8410    -1.0920 nz         1 PSF      -0.782600
     21 CA           3.3970    -3.3580    -1.0250 c3         1 PSF      -0.041500
     22 CB           3.3350    -1.9280    -0.5090 c3         1 PSF       0.228400
     23 C            2.8190    -3.4450    -2.4230 c          1 PSF       0.867600
     24 OT1          1.4910    -3.7340    -2.4050 o          1 PSF      -0.780800
     25 OT2          3.4410    -3.2390    -3.4570 o          1 PSF      -0.780800
     26 C8          -8.2770     3.0560     1.2540 c3         1 PSF      -0.079400
     27 C9          -8.9390     4.3830     1.6260 c3         1 PSF      -0.082400
     28 C10        -10.4240     4.3760     1.3000 c3         1 PSF      -0.090100
     29 C16          0.2390     0.0720    -4.5020 c3         1 PSF      -0.073400
     30 C17          1.7470    -0.1190    -4.5370 c3         1 PSF      -0.091100
     31 H21         -0.3930    -0.9760     1.7650 h1         1 PSF       0.064700
     32 H22         -0.3920    -1.9920     0.3180 h1         1 PSF       0.064700
     33 H31         -2.6890    -1.6440     1.1180 h1         1 PSF       0.045700
     34 H41         -2.1260     1.3000     0.6230 h1         1 PSF       0.073200
     35 H42         -2.3870     0.5520     2.2070 h1         1 PSF       0.073200
     36 H61         -6.2250     1.6150     0.0910 hc         1 PSF       0.068700
     37 H62         -6.5320     0.9660     1.6990 hc         1 PSF       0.068700
     38 H71         -6.6240     3.2570     2.6030 hc         1 PSF       0.052200
     39 H72         -6.3270     3.9030     0.9900 hc         1 PSF       0.052200
     40 H131        -2.5070    -2.8860    -3.3760 hc         1 PSF       0.056700
     41 H132        -3.7460    -1.7330    -2.8920 hc         1 PSF       0.056700
     42 H141        -2.1590     0.1150    -3.1930 hc         1 PSF       0.037200
     43 H142        -2.3630    -0.8130    -4.6770 hc         1 PSF       0.037200
     44 H151        -0.0520    -1.1060    -2.7340 hc         1 PSF       0.067200
     45 H152        -0.2530    -1.9990    -4.2440 hc         1 PSF       0.067200
     46 HA           2.8260    -3.9990    -0.3650 hx         1 PSF       0.115700
     47 HB1          3.7310    -1.8890     0.4990 h1         1 PSF       0.025700
     48 HB2          3.9210    -1.2840    -1.1540 h1         1 PSF       0.025700
     49 H81         -8.7330     2.2590     1.8290 hc         1 PSF       0.037200
     50 H82         -8.4320     2.8650     0.1990 hc         1 PSF       0.037200
     51 H91         -8.4600     5.1830     1.0750 hc         1 PSF       0.040700
     52 H92         -8.8100     4.5580     2.6870 hc         1 PSF       0.040700
     53 H101       -10.9090     3.5760     1.8450 hc         1 PSF       0.030700
     54 H102       -10.8600     5.3250     1.5870 hc         1 PSF       0.030700
     55 H103       -10.5590     4.2230     0.2360 hc         1 PSF       0.030700
     56 H161        -0.1390     0.0970    -5.5170 hc         1 PSF       0.021700
     57 H162         0.0130     1.0130    -4.0160 hc         1 PSF       0.021700
     58 H171         1.9770    -1.1050    -4.9240 hc         1 PSF       0.039033
     59 H172         2.1470    -0.0210    -3.5360 hc         1 PSF       0.039033
     60 H173         2.1910     0.6330    -5.1790 hc         1 PSF       0.039033
     61 H2           5.3070    -3.2100    -1.6390 hn         1 PSF       0.429467
     62 HN2          5.1340    -3.9000    -0.1680 hn         1 PSF       0.429467
     63 H1           4.7670    -4.7470    -1.5170 hn         1 PSF       0.429467
@<TRIPOS>BOND
     1     1     3 1
     2     1     6 1
     3     2     3 1
     4     2    22 1
     5     3     4 1
     6     3     5 1
     7     6     7 1
     8     6    31 1
     9     6    32 1
    10     7     8 1
    11     7    11 1
    12     7    33 1
    13     8    10 1
    14     9    10 2
    15    10    17 1
    16    11    14 1
    17    11    34 1
    18    11    35 1
    19    12    13 2
    20    12    14 1
    21    12    15 1
    22    15    16 1
    23    15    36 1
    24    15    37 1
    25    16    26 1
    26    16    38 1
    27    16    39 1
    28    17    18 1
    29    17    40 1
    30    17    41 1
    31    18    19 1
    32    18    42 1
    33    18    43 1
    34    19    29 1
    35    19    44 1
    36    19    45 1
    37    20    21 1
    38    20    63 1
    39    20    61 1
    40    21    22 1
    41    21    23 1
    42    21    46 1
    43    22    47 1
    44    22    48 1
    45    23    24 1
    46    23    25 1
    47    26    27 1
    48    26    49 1
    49    26    50 1
    50    27    28 1
    51    27    51 1
    52    27    52 1
    53    28    53 1
    54    28    54 1
    55    28    55 1
    56    29    30 1
    57    29    56 1
    58    29    57 1
    59    30    58 1
    60    30    59 1
    61    30    60 1
    62    62    20 1
@<TRIPOS>SUBSTRUCTURE
     1 PSF         1 TEMP              0 ****  ****    0 ROOT
