@<TRIPOS>MOLECULE
molecule
   36    37     1     0     0
SMALL
bcc


@<TRIPOS>ATOM
      1 C7           0.0000     0.0000     0.0000 ca         1 PSG      -0.105500
      2 C8           1.3950     0.0000     0.0000 ca         1 PSG      -0.058500
      3 C9           2.0920     0.0000     1.2080 ca         1 PSG      -0.108200
      4 C10          1.3950    -0.0000     2.4160 ca         1 PSG      -0.058500
      5 C11         -0.0000    -0.0000     2.4160 ca         1 PSG      -0.105500
      6 C12         -0.7160     0.0000     1.2080 ca         1 PSG       0.073900
      7 N1           3.5030     0.0010     1.2080 no         1 PSG       0.159200
      8 O11          4.2290     0.0030     0.0250 o          1 PSG      -0.183000
      9 O12          4.2280     0.0080     2.3910 o          1 PSG      -0.183000
     10 S1          -2.4800     0.0020     1.2070 ss         1 PSG      -0.223000
     11 C1          -2.7770     1.5670     0.3070 c3         1 PSG       0.210200
     12 C2          -4.2830     1.8150     0.1620 c3         1 PSG       0.119100
     13 C3          -4.5510     3.1800    -0.4830 c3         1 PSG       0.131100
     14 C4          -3.7410     4.2850     0.1940 c3         1 PSG       0.111100
     15 C5          -2.2680     3.8880     0.3050 c3         1 PSG       0.132100
     16 C6          -1.4600     4.9240     1.0790 c3         1 PSG       0.154400
     17 O2          -4.8500     0.8000    -0.6660 oh         1 PSG      -0.594800
     18 O3          -5.9360     3.5050    -0.3520 oh         1 PSG      -0.603800
     19 O4          -3.8490     5.4840    -0.5710 oh         1 PSG      -0.599800
     20 O5          -2.1510     2.6460     1.0000 os         1 PSG      -0.386600
     21 O6          -0.1160     4.4870     1.1510 oh         1 PSG      -0.597800
     22 H7          -0.5360     0.0000    -0.9410 ha         1 PSG       0.157500
     23 H8           1.9370     0.0000    -0.9380 ha         1 PSG       0.174000
     24 H10          1.9370    -0.0010     3.3540 ha         1 PSG       0.174000
     25 H11         -0.5370    -0.0010     3.3570 ha         1 PSG       0.157500
     26 H1          -2.3420     1.4920    -0.6820 h2         1 PSG       0.068700
     27 H2          -4.7460     1.7860     1.1410 h1         1 PSG       0.068700
     28 H3          -4.2860     3.1360    -1.5330 h1         1 PSG       0.065700
     29 H4          -4.1370     4.4550     1.1870 h1         1 PSG       0.058700
     30 H5          -1.8550     3.7770    -0.6900 h1         1 PSG       0.063700
     31 H62         -1.5050     5.8780     0.5660 h1         1 PSG       0.034700
     32 H61         -1.8630     5.0290     2.0790 h1         1 PSG       0.034700
     33 H2O1        -5.4140     0.2500    -0.1470 ho         1 PSG       0.417000
     34 H3O1        -6.3290     3.5560    -1.2070 ho         1 PSG       0.417000
     35 H4O1        -4.3690     6.1120    -0.0980 ho         1 PSG       0.415000
     36 H6O1         0.4190     5.1720     1.5170 ho         1 PSG       0.408000
@<TRIPOS>BOND
     1     1     2 ar
     2     1     6 ar
     3     1    22 1
     4     2     3 ar
     5     2    23 1
     6     3     4 ar
     7     3     7 1
     8     4     5 ar
     9     4    24 1
    10     5     6 ar
    11     5    25 1
    12     6    10 1
    13     7     8 1
    14     7     9 1
    15    10    11 1
    16    11    12 1
    17    11    20 1
    18    11    26 1
    19    12    13 1
    20    12    17 1
    21    12    27 1
    22    13    14 1
    23    13    18 1
    24    13    28 1
    25    14    15 1
    26    14    19 1
    27    14    29 1
    28    15    16 1
    29    15    20 1
    30    15    30 1
    31    16    21 1
    32    16    31 1
    33    16    32 1
    34    17    33 1
    35    18    34 1
    36    19    35 1
    37    21    36 1
@<TRIPOS>SUBSTRUCTURE
     1 PSG         1 TEMP              0 ****  ****    0 ROOT
