@<TRIPOS>MOLECULE
molecule
   26    25     1     0     0
SMALL
bcc


@<TRIPOS>ATOM
      1 CAA          0.0000     0.0000     0.0000 c3         1 PSK      -0.093100
      2 CAJ          1.5300     0.0000     0.0000 c3         1 PSK      -0.108400
      3 CAQ          2.0410     0.0000     1.4410 c3         1 PSK       0.161100
      4 OAG          1.6630     1.2200     2.0810 oh         1 PSK      -0.595800
      5 CAP          3.5660    -0.1260     1.4430 c3         1 PSK      -0.179700
      6 CAB          4.1800     1.1160     0.7960 c3         1 PSK      -0.071100
      7 CAN          4.0580    -0.2500     2.8620 c          1 PSK       0.592100
      8 OAE          3.4000     0.1960     3.7710 o          1 PSK      -0.515100
      9 CAL          5.3730    -0.9300     3.1460 c3         1 PSK      -0.362600
     10 P1           5.6860    -0.9190     4.9420 p5         1 PSK       1.013600
     11 OAH          4.5980    -1.6410     5.6370 o          1 PSK      -0.805500
     12 OAF          7.0910    -1.6450     5.2450 o          1 PSK      -0.805500
     13 HAA1        -0.3610    -0.7410     0.7020 hc         1 PSK       0.029700
     14 HAA2        -0.3610    -0.2380    -0.9930 hc         1 PSK       0.029700
     15 HAA3        -0.3610     0.9790     0.2910 hc         1 PSK       0.029700
     16 HAJ1         1.8910    -0.8840    -0.5110 hc         1 PSK       0.045200
     17 HAJ2         1.8910     0.8850    -0.5110 hc         1 PSK       0.045200
     18 HAQ          1.6090    -0.8370     1.9770 h1         1 PSK       0.042700
     19 HOAG         0.9240     1.0630     2.6450 ho         1 PSK       0.403000
     20 HAP          3.8560    -1.0060     0.8820 hc         1 PSK       0.060700
     21 HAB1         3.3910     1.7970     0.4980 hc         1 PSK       0.036367
     22 HAB2         4.8320     1.6090     1.5070 hc         1 PSK       0.036367
     23 HAB3         4.7530     0.8240    -0.0760 hc         1 PSK       0.036367
     24 HAL1         6.1710    -0.4020     2.6370 hc         1 PSK       0.076200
     25 HAL2         5.3350    -1.9530     2.7920 hc         1 PSK       0.076200
     26 HP1          5.7360     0.4080     5.4010 hp         1 PSK      -0.176400
@<TRIPOS>BOND
     1     1     2 1
     2     1    13 1
     3     1    14 1
     4     1    15 1
     5     2     3 1
     6     2    16 1
     7     2    17 1
     8     3     4 1
     9     3     5 1
    10     3    18 1
    11     4    19 1
    12     5     6 1
    13     5     7 1
    14     5    20 1
    15     6    21 1
    16     6    22 1
    17     6    23 1
    18     7     8 2
    19     7     9 1
    20     9    10 1
    21     9    24 1
    22     9    25 1
    23    10    11 1
    24    10    12 1
    25    10    26 1
@<TRIPOS>SUBSTRUCTURE
     1 PSK         1 TEMP              0 ****  ****    0 ROOT
