@<TRIPOS>MOLECULE
PSK
   26    25     1     0     0
SMALL
bcc


@<TRIPOS>ATOM
      1 CAA         0.0130   -0.3430    0.4220 c3        1 PSK     -0.087100
      2 CAJ         1.5160   -0.2730    0.3550 c3        1 PSK     -0.077400
      3 CAQ         2.1010    0.3770    1.6070 c3        1 PSK      0.163100
      4 OAG         1.7740    1.7610    1.5470 oh        1 PSK     -0.631800
      5 CAP         3.6120    0.1420    1.7020 c3        1 PSK     -0.232700
      6 CAB         4.3700    0.8950    0.6340 c3        1 PSK     -0.068100
      7 CAN         4.1390    0.5180    3.0790 c         1 PSK      0.623100
      8 OAE         3.5560    1.3840    3.7560 o         1 PSK     -0.611100
      9 CAL         5.3590   -0.1720    3.5300 c3        1 PSK     -0.416600
     10 P1          5.1530   -1.8290    4.0090 p5        1 PSK      1.259600
     11 OAH         4.5760   -2.5640    2.8550 o         1 PSK     -0.869500
     12 OAF         6.4050   -2.2640    4.6650 o         1 PSK     -0.869500
     13 HAA1       -0.3140   -0.9960    1.2680 hc        1 PSK      0.028033
     14 HAA2       -0.4130    0.6770    0.5800 hc        1 PSK      0.028033
     15 HAA3       -0.4000   -0.7630   -0.5270 hc        1 PSK      0.028033
     16 HAJ1        1.9460   -1.3040    0.2570 hc        1 PSK      0.049200
     17 HAJ2        1.8260    0.3220   -0.5430 hc        1 PSK      0.049200
     18 HAQ         1.6170   -0.0680    2.5250 h1        1 PSK      0.042700
     19 HOAG        2.1580    2.1660    2.3370 ho        1 PSK      0.422000
     20 HAP         3.8030   -0.9760    1.5980 hc        1 PSK      0.146700
     21 HAB1        4.0870    0.5080   -0.3740 hc        1 PSK      0.031033
     22 HAB2        5.4710    0.7650    0.7680 hc        1 PSK      0.031033
     23 HAB3        4.1240    1.9840    0.6770 hc        1 PSK      0.031033
     24 HAL1        6.1040   -0.1850    2.6960 hc        1 PSK      0.087200
     25 HAL2        5.8180    0.3790    4.3870 hc        1 PSK      0.087200
     26 HP1         4.2100   -1.6430    4.9180 hp        1 PSK     -0.244400
@<TRIPOS>BOND
     1    1    2 1   
     2    1   13 1   
     3    1   14 1   
     4    1   15 1   
     5    2    3 1   
     6    2   16 1   
     7    2   17 1   
     8    3    4 1   
     9    3    5 1   
    10    3   18 1   
    11    4   19 1   
    12    5    6 1   
    13    5    7 1   
    14    5   20 1   
    15    6   21 1   
    16    6   22 1   
    17    6   23 1   
    18    7    8 2   
    19    7    9 1   
    20    9   10 1   
    21    9   24 1   
    22    9   25 1   
    23   10   11 1   
    24   10   12 1   
    25   10   26 1   
@<TRIPOS>SUBSTRUCTURE
     1 PSK         1 TEMP              0 ****  ****    0 ROOT
