@<TRIPOS>MOLECULE
molecule
    9     8     1     0     0
SMALL
bcc


@<TRIPOS>ATOM
      1 S1          -1.2220     0.0000     0.0510 s6         1 PSL       1.554300
      2 O1          -2.3560     0.3610     0.8880 o          1 PSL      -0.732533
      3 O2          -1.3370    -1.3480    -0.4840 o          1 PSL      -0.732533
      4 O3          -0.9640     0.9870    -0.9860 o          1 PSL      -0.732533
      5 S2           1.2220     0.0000     0.0510 s6         1 PSL       1.554300
      6 O4           1.3370     1.3480    -0.4840 o          1 PSL      -0.732533
      7 O5           0.0000     0.0000     0.9590 os         1 PSL      -0.712400
      8 O6           2.3560    -0.3610     0.8880 o          1 PSL      -0.732533
      9 O7           0.9640    -0.9870    -0.9860 o          1 PSL      -0.732533
@<TRIPOS>BOND
     1     1     2 1
     2     1     3 1
     3     1     4 1
     4     1     7 1
     5     5     6 1
     6     5     7 1
     7     5     8 1
     8     5     9 1
@<TRIPOS>SUBSTRUCTURE
     1 PSL         1 TEMP              0 ****  ****    0 ROOT
