@<TRIPOS>MOLECULE
PSL
    9     8     1     0     0
SMALL
bcc


@<TRIPOS>ATOM
      1 S1         -1.6220   -0.0420   -0.0110 s6        1 PSL      1.800300
      2 O1         -2.0070    0.6270    1.1620 o         1 PSL     -0.796200
      3 O2         -1.9540   -1.4070   -0.0090 o         1 PSL     -0.796200
      4 O3         -2.0070    0.6240   -1.1860 o         1 PSL     -0.796200
      5 S2          1.6220    0.0420   -0.0110 s6        1 PSL      1.800300
      6 O4          1.9540    1.4070   -0.0130 o         1 PSL     -0.796200
      7 O5          0.0000   -0.0000   -0.0110 os        1 PSL     -0.825400
      8 O6          2.0070   -0.6240    1.1630 o         1 PSL     -0.796200
      9 O7          2.0070   -0.6270   -1.1850 o         1 PSL     -0.796200
@<TRIPOS>BOND
     1    1    2 1   
     2    1    3 1   
     3    1    4 1   
     4    1    7 1   
     5    5    6 1   
     6    5    7 1   
     7    5    8 1   
     8    5    9 1   
@<TRIPOS>SUBSTRUCTURE
     1 PSL         1 TEMP              0 ****  ****    0 ROOT
