@<TRIPOS>MOLECULE
molecule
   32    33     1     0     0
SMALL
bcc


@<TRIPOS>ATOM
      1 C1           0.0000     0.0000     0.0000 ca         1 PSN      -0.106000
      2 C2           1.4270     0.0000     0.0000 ca         1 PSN      -0.173000
      3 C3           2.1310     0.0000     1.2460 ca         1 PSN      -0.102000
      4 C4           1.4560    -0.0250     2.5130 ca         1 PSN      -0.141600
      5 C5           0.0320     0.0040     2.4870 ca         1 PSN       0.197100
      6 C6          -0.7180     0.0510     1.2400 ca         1 PSN      -0.173000
      7 C7           2.2700    -0.0720     3.7840 c          1 PSN       0.539500
      8 O8          -0.6120     0.0490     3.7700 os         1 PSN      -0.470500
      9 P9          -1.0810    -1.3030     4.4930 p5         1 PSN       1.260800
     10 O10         -2.4070    -1.8820     3.9880 os         1 PSN      -0.549200
     11 O11         -1.4610    -0.8580     5.9350 o          1 PSN      -0.765000
     12 C12         -2.9000    -1.8910     2.5950 c3         1 PSN       0.238700
     13 C13         -2.1150    -2.8200     1.5810 ca         1 PSN      -0.116300
     14 C16         -2.6650    -2.9630     0.2400 ca         1 PSN      -0.111000
     15 C17         -2.0160    -3.8750    -0.6480 ca         1 PSN      -0.143500
     16 C18         -0.8340    -4.6200    -0.2160 ca         1 PSN      -0.161000
     17 C19         -0.2150    -4.3580     1.0600 ca         1 PSN      -0.143500
     18 C20         -0.8680    -3.4760     1.9710 ca         1 PSN      -0.111000
     19 O32          0.0220    -2.3710     4.5830 o          1 PSN      -0.765000
     20 O25          2.4880    -1.1460     4.5730 o          1 PSN      -0.472100
     21 H1          -0.5400     0.0170    -0.9390 ha         1 PSN       0.122000
     22 H2           1.9730    -0.0100    -0.9360 ha         1 PSN       0.122000
     23 H3           3.2140    -0.0100     1.2320 ha         1 PSN       0.119000
     24 H6          -1.8010     0.0620     1.2500 ha         1 PSN       0.142000
     25 H7           2.7230     0.8640     4.0870 h4         1 PSN       0.005200
     26 H121        -3.9350    -2.2080     2.6070 h1         1 PSN       0.036700
     27 H122        -2.8610    -0.8760     2.2190 h1         1 PSN       0.036700
     28 H16         -3.6740    -2.6290     0.0300 ha         1 PSN       0.158500
     29 H17         -2.4020    -4.0170    -1.6500 ha         1 PSN       0.126500
     30 H18         -0.4170    -5.3800    -0.8640 ha         1 PSN       0.113000
     31 H19          0.6100    -4.9730     1.3980 ha         1 PSN       0.126500
     32 H20         -0.7310    -4.0730     2.8650 ha         1 PSN       0.158500
@<TRIPOS>BOND
     1     1     2 ar
     2     1     6 ar
     3     1    21 1
     4     2     3 ar
     5     2    22 1
     6     3     4 ar
     7     3    23 1
     8     4     5 ar
     9     4     7 1
    10     5     6 ar
    11     5     8 1
    12     6    24 1
    13     7    20 2
    14     7    25 1
    15     8     9 1
    16     9    10 1
    17     9    11 1
    18     9    19 1
    19    10    12 1
    20    12    13 1
    21    12    26 1
    22    12    27 1
    23    13    14 ar
    24    13    18 ar
    25    14    15 ar
    26    14    28 1
    27    15    16 ar
    28    15    29 1
    29    16    17 ar
    30    16    30 1
    31    17    18 ar
    32    17    31 1
    33    18    32 1
@<TRIPOS>SUBSTRUCTURE
     1 PSN         1 TEMP              0 ****  ****    0 ROOT
