@<TRIPOS>MOLECULE
PSN
   32    33     1     0     0
SMALL
bcc


@<TRIPOS>ATOM
      1 C1          1.4390    0.1690    0.1800 ca        1 PSN     -0.089000
      2 C2          2.6580    0.6850    0.6310 ca        1 PSN     -0.208000
      3 C3          2.8260    0.9650    1.9810 ca        1 PSN     -0.058000
      4 C4          1.7950    0.7380    2.9010 ca        1 PSN     -0.251600
      5 C5          0.5560    0.2260    2.4450 ca        1 PSN      0.287100
      6 C6          0.3970   -0.0540    1.0650 ca        1 PSN     -0.202000
      7 C7          2.0140    0.9890    4.3350 c         1 PSN      0.587500
      8 O8         -0.5130    0.1290    3.2490 os        1 PSN     -0.495500
      9 P9         -0.8830   -1.1800    4.2380 p5        1 PSN      1.437800
     10 O10        -1.0200   -2.3100    3.0520 os        1 PSN     -0.573200
     11 O11        -2.2350   -0.8990    4.7390 o         1 PSN     -0.802500
     12 C12        -2.2810   -2.3250    2.4440 c3        1 PSN      0.210700
     13 C13        -2.3760   -3.4010    1.4120 ca        1 PSN     -0.066300
     14 C16        -3.5680   -3.5450    0.6920 ca        1 PSN     -0.121500
     15 C17        -3.6890   -4.5400   -0.2760 ca        1 PSN     -0.142500
     16 C18        -2.6210   -5.4000   -0.5320 ca        1 PSN     -0.152000
     17 C19        -1.4320   -5.2610    0.1830 ca        1 PSN     -0.142500
     18 C20        -1.3070   -4.2660    1.1510 ca        1 PSN     -0.121500
     19 O32         0.3350   -1.4570    5.0120 o         1 PSN     -0.802500
     20 O25         2.9340    1.6980    4.7620 o         1 PSN     -0.594100
     21 H1          1.3060   -0.0610   -0.8880 ha        1 PSN      0.112000
     22 H2          3.4770    0.8630   -0.0780 ha        1 PSN      0.114000
     23 H3          3.7790    1.3730    2.3550 ha        1 PSN      0.134000
     24 H6         -0.5640   -0.4590    0.7190 ha        1 PSN      0.139000
     25 H7          1.2930    0.4650    5.0110 h4        1 PSN      0.063200
     26 H121       -3.0650   -2.4800    3.2400 h1        1 PSN      0.048700
     27 H122       -2.4550   -1.3170    1.9690 h1        1 PSN      0.048700
     28 H16        -4.4110   -2.8680    0.8950 ha        1 PSN      0.146500
     29 H17        -4.6280   -4.6480   -0.8370 ha        1 PSN      0.116500
     30 H18        -2.7170   -6.1840   -1.2960 ha        1 PSN      0.113000
     31 H19        -0.5880   -5.9360   -0.0170 ha        1 PSN      0.116500
     32 H20        -0.3730   -4.1430    1.7240 ha        1 PSN      0.146500
@<TRIPOS>BOND
     1    1    2 ar  
     2    1    6 ar  
     3    1   21 1   
     4    2    3 ar  
     5    2   22 1   
     6    3    4 ar  
     7    3   23 1   
     8    4    5 ar  
     9    4    7 1   
    10    5    6 ar  
    11    5    8 1   
    12    6   24 1   
    13    7   20 2   
    14    7   25 1   
    15    8    9 1   
    16    9   10 1   
    17    9   11 1   
    18    9   19 1   
    19   10   12 1   
    20   12   13 1   
    21   12   26 1   
    22   12   27 1   
    23   13   14 ar  
    24   13   18 ar  
    25   14   15 ar  
    26   14   28 1   
    27   15   16 ar  
    28   15   29 1   
    29   16   17 ar  
    30   16   30 1   
    31   17   18 ar  
    32   17   31 1   
    33   18   32 1   
@<TRIPOS>SUBSTRUCTURE
     1 PSN         1 TEMP              0 ****  ****    0 ROOT
