@<TRIPOS>MOLECULE
PSO
   33    35     1     0     0
SMALL
bcc


@<TRIPOS>ATOM
      1 O1         -0.0730   -0.1310   -0.0180 os        1 PSO     -0.323200
      2 C2          1.3200   -0.1570   -0.0680 c         1 PSO      0.722800
      3 C3          2.0860   -0.1130    1.1650 cc        1 PSO     -0.266200
      4 C4          1.4730   -0.0480    2.3710 cd        1 PSO      0.049600
      5 C5         -0.6700    0.0440    3.6500 ca        1 PSO     -0.046000
      6 C6         -2.0530    0.0660    3.6350 ca        1 PSO     -0.114800
      7 C7         -2.7470    0.0250    2.3810 ca        1 PSO      0.103100
      8 C8         -2.1110   -0.0410    1.1490 ca        1 PSO     -0.081300
      9 C9         -0.6970   -0.0640    1.2100 ca        1 PSO      0.157100
     10 C10         0.0230   -0.0220    2.4300 ca        1 PSO     -0.155800
     11 C4'        -3.0920    0.1290    4.6550 cc        1 PSO     -0.144400
     12 C5'        -4.3020    0.1250    3.9970 cd        1 PSO      0.089900
     13 O6'        -4.1240    0.0610    2.5930 os        1 PSO     -0.204200
     14 O11         1.7160   -0.2180   -1.2310 o         1 PSO     -0.567500
     15 C12         2.2530   -0.0030    3.6300 c3        1 PSO     -0.073900
     16 C13        -2.7960    0.1620    6.0990 c3        1 PSO      0.206600
     17 O14        -3.9290    0.6390    6.8130 oh        1 PSO     -0.601800
     18 C15        -5.7020    0.1770    4.4270 c3        1 PSO     -0.047900
     19 C16        -2.8320   -0.0840   -0.1380 c3        1 PSO     -0.042800
     20 H3          3.1790   -0.1360    1.0490 ha        1 PSO      0.168000
     21 H5         -0.1200    0.0800    4.6020 ha        1 PSO      0.142000
     22 H121        3.3520   -0.0310    3.4260 hc        1 PSO      0.058033
     23 H122        2.0210    0.9360    4.1930 hc        1 PSO      0.058033
     24 H123        1.9910   -0.8790    4.2760 hc        1 PSO      0.058033
     25 H131       -1.9150    0.8370    6.2890 h1        1 PSO      0.032700
     26 H132       -2.5400   -0.8750    6.4590 h1        1 PSO      0.032700
     27 H14        -3.6590    0.7010    7.7360 ho        1 PSO      0.406000
     28 H151       -5.7520    0.1930    5.5450 hc        1 PSO      0.070700
     29 H152       -6.1930    1.0990    4.0250 hc        1 PSO      0.070700
     30 H153       -6.2570   -0.7150    4.0420 hc        1 PSO      0.070700
     31 H161       -2.5560   -1.0110   -0.7010 hc        1 PSO      0.058033
     32 H162       -3.9370   -0.0700    0.0250 hc        1 PSO      0.058033
     33 H163       -2.5430    0.7960   -0.7670 hc        1 PSO      0.058033
@<TRIPOS>BOND
     1    1    2 1   
     2    1    9 1   
     3    2    3 1   
     4    2   14 2   
     5    3    4 2   
     6    3   20 1   
     7    4   10 1   
     8    4   15 1   
     9    5    6 ar  
    10    5   10 ar  
    11    5   21 1   
    12    6    7 ar  
    13    6   11 1   
    14    7    8 ar  
    15    7   13 1   
    16    8    9 ar  
    17    8   19 1   
    18    9   10 ar  
    19   11   12 2   
    20   11   16 1   
    21   12   13 1   
    22   12   18 1   
    23   15   22 1   
    24   15   23 1   
    25   15   24 1   
    26   16   17 1   
    27   16   25 1   
    28   16   26 1   
    29   17   27 1   
    30   18   28 1   
    31   18   29 1   
    32   18   30 1   
    33   19   31 1   
    34   19   32 1   
    35   19   33 1   
@<TRIPOS>SUBSTRUCTURE
     1 PSO         1 TEMP              0 ****  ****    0 ROOT
