@<TRIPOS>MOLECULE
PSP
   39    42     1     0     0
SMALL
bcc


@<TRIPOS>ATOM
      1 C1           0.0000     0.0000     0.0000 c3         1 PSP      -0.168000
      2 C5A          4.2020     0.0000     0.0000 c3         1 PSP      -0.039000
      3 O10          7.7430     0.0050     1.1190 oh         1 PSP      -0.147500
      4 N9           6.3260     0.0040     1.1190 n2         1 PSP       0.175000
      5 C8           5.6800    -0.0010    -0.0000 c2         1 PSP      -0.239000
      6 C4           3.4830     0.0000     1.2010 c2         1 PSP      -0.039500
      7 C3           2.1040     0.0050     1.1540 c2         1 PSP      -0.223500
      8 N2           1.4650     0.0000     0.0000 n3         1 PSP       0.559000
      9 C7           2.1040    -0.0060    -1.1540 c2         1 PSP      -0.223500
     10 C6           3.4830    -0.0070    -1.2000 c2         1 PSP      -0.039500
     11 C2          -0.5110    -1.4420     0.0070 c3         1 PSP      -0.132000
     12 C5          -2.0410    -1.4420     0.0080 c3         1 PSP      -0.168000
     13 N8          -2.5290    -2.8230     0.0150 n3         1 PSP       0.559000
     14 C9          -2.7480    -3.4290    -1.1360 c2         1 PSP      -0.223500
     15 C10         -3.2030    -4.7310    -1.1760 c2         1 PSP      -0.039500
     16 C11         -3.4430    -5.4030     0.0280 c3         1 PSP      -0.039000
     17 C12         -3.2020    -4.7190     1.2250 c2         1 PSP      -0.039500
     18 C13         -2.7420    -3.4190     1.1720 c2         1 PSP      -0.223500
     19 C14         -3.9360    -6.7960     0.0350 c2         1 PSP      -0.239000
     20 N15         -4.1520    -7.4110    -1.0810 n2         1 PSP       0.175000
     21 O16         -4.6240    -8.7460    -1.0740 oh         1 PSP      -0.147500
     22 H1A         -0.3610     0.5060    -0.8870 h1         1 PSP       0.115250
     23 H2A         -0.3610     0.5150     0.8820 h1         1 PSP       0.115250
     24 H10A         8.0570     0.1690     1.9920 ho         1 PSP       0.239000
     25 H8           5.0680    -0.8740     0.1880 DU         1 PSP       0.217000
     26 H4A          4.0000     0.0040     2.1520 ha         1 PSP       0.171250
     27 H3A          1.5380     0.0050     2.0780 h4         1 PSP       0.170000
     28 H7A          1.5390    -0.0110    -2.0780 h4         1 PSP       0.170000
     29 H6A          4.0010    -0.0120    -2.1520 ha         1 PSP       0.171250
     30 H3          -0.1500    -1.9490     0.8940 hc         1 PSP       0.082000
     31 H4          -0.1500    -1.9570    -0.8750 hc         1 PSP       0.082000
     32 H6          -2.4020    -0.9360    -0.8790 h1         1 PSP       0.115250
     33 H7          -2.4010    -0.9270     0.8900 h1         1 PSP       0.115250
     34 H9          -2.5590    -2.9000    -2.0630 h4         1 PSP       0.170000
     35 H10         -3.3780    -5.2230    -2.1250 ha         1 PSP       0.171250
     36 H12         -3.3740    -5.2030     2.1790 ha         1 PSP       0.171250
     37 H13         -2.5530    -2.8810     2.0930 h4         1 PSP       0.170000
     38 H14         -4.5560    -5.9280    -0.1560 DU         1 PSP       0.217000
     39 H16         -4.5780    -9.1000    -1.9470 ho         1 PSP       0.239000
@<TRIPOS>BOND
     1     1     8 1   
     2     1    11 1   
     3     1    22 1   
     4     1    23 1   
     5     2     5 1   
     6     2     6 1   
     7     2    10 1   
     8     2    25 1   
     9     3     4 1   
    10     3    24 1   
    11     4     5 1   
    12     5    25 1   
    13     6     7 1   
    14     6    26 1   
    15     7     8 1   
    16     7    27 1   
    17     8     9 1   
    18     9    10 1   
    19     9    28 1   
    20    10    29 1   
    21    11    12 1   
    22    11    30 1   
    23    11    31 1   
    24    12    13 1   
    25    12    32 1   
    26    12    33 1   
    27    13    14 1   
    28    13    18 1   
    29    14    15 1   
    30    14    34 1   
    31    15    16 1   
    32    15    35 1   
    33    16    17 1   
    34    16    19 1   
    35    16    38 1   
    36    17    18 1   
    37    17    36 1   
    38    18    37 1   
    39    19    20 1   
    40    19    38 1   
    41    20    21 1   
    42    21    39 1   
@<TRIPOS>SUBSTRUCTURE
     1 PSP         1 TEMP              0 ****  ****    0 ROOT
