@<TRIPOS>MOLECULE
molecule
   39    40     1     0     0
SMALL
bcc


@<TRIPOS>ATOM
      1 C1           0.0000     0.0000     0.0000 c3         1 PSP      -0.000700
      2 C5A          4.2020     0.0000     0.0000 ca         1 PSP       0.024100
      3 O10          7.7430     0.0050     1.1190 oh         1 PSP      -0.324500
      4 N9           6.3260     0.0040     1.1190 n2         1 PSP      -0.365200
      5 C8           5.6800    -0.0010    -0.0000 ce         1 PSP       0.367800
      6 C4           3.4830     0.0000     1.2010 ca         1 PSP      -0.114500
      7 C3           2.1040     0.0050     1.1540 ca         1 PSP      -0.045800
      8 N2           1.4650     0.0000     0.0000 na         1 PSP       0.052900
      9 C7           2.1040    -0.0060    -1.1540 ca         1 PSP      -0.045800
     10 C6           3.4830    -0.0070    -1.2000 ca         1 PSP      -0.114500
     11 C2          -0.5110    -1.4420     0.0070 c3         1 PSP      -0.133400
     12 C5          -2.0410    -1.4420     0.0080 c3         1 PSP      -0.000700
     13 N8          -2.5290    -2.8230     0.0150 na         1 PSP       0.052900
     14 C9          -2.7480    -3.4290    -1.1360 ca         1 PSP      -0.045800
     15 C10         -3.2030    -4.7310    -1.1760 ca         1 PSP      -0.114500
     16 C11         -3.4430    -5.4030     0.0280 ca         1 PSP       0.024100
     17 C12         -3.2020    -4.7190     1.2250 ca         1 PSP      -0.114500
     18 C13         -2.7420    -3.4190     1.1720 ca         1 PSP      -0.045800
     19 C14         -3.9360    -6.7960     0.0350 ce         1 PSP       0.367800
     20 N15         -4.1520    -7.4110    -1.0810 n2         1 PSP      -0.365200
     21 O16         -4.6240    -8.7460    -1.0740 oh         1 PSP      -0.324500
     22 H1A         -0.3610     0.5060    -0.8870 h1         1 PSP       0.106200
     23 H2A         -0.3610     0.5150     0.8820 h1         1 PSP       0.106200
     24 H10A         8.0570     0.0090     2.0080 ho         1 PSP       0.461500
     25 H8           6.2210    -0.0040    -0.9380 h4         1 PSP       0.046800
     26 H4A          4.0000     0.0040     2.1520 ha         1 PSP       0.213000
     27 H3A          1.5380     0.0050     2.0780 h4         1 PSP       0.204000
     28 H7A          1.5390    -0.0110    -2.0780 h4         1 PSP       0.204000
     29 H6A          4.0010    -0.0120    -2.1520 ha         1 PSP       0.213000
     30 H3          -0.1500    -1.9570    -0.8750 hc         1 PSP       0.079700
     31 H4          -0.1500    -1.9490     0.8940 hc         1 PSP       0.079700
     32 H6          -2.4010    -0.9270     0.8900 h1         1 PSP       0.106200
     33 H7          -2.4020    -0.9360    -0.8790 h1         1 PSP       0.106200
     34 H9          -2.5590    -2.9000    -2.0630 h4         1 PSP       0.204000
     35 H10         -3.3780    -5.2230    -2.1250 ha         1 PSP       0.213000
     36 H12         -3.3740    -5.2030     2.1790 ha         1 PSP       0.213000
     37 H13         -2.5530    -2.8810     2.0930 h4         1 PSP       0.204000
     38 H14         -4.1160    -7.3020     0.9760 h4         1 PSP       0.046800
     39 H16         -4.7290    -9.0470    -1.9620 ho         1 PSP       0.461500
@<TRIPOS>BOND
     1     1     8 1
     2     1    11 1
     3     1    22 1
     4     1    23 1
     5     2     5 1
     6     2     6 ar
     7     2    10 ar
     8     3     4 1
     9     3    24 1
    10     4     5 2
    11     5    25 1
    12     6     7 ar
    13     6    26 1
    14     7     8 1
    15     7    27 1
    16     8     9 2
    17     9    10 ar
    18     9    28 1
    19    10    29 1
    20    11    12 1
    21    11    30 1
    22    11    31 1
    23    12    13 1
    24    12    32 1
    25    12    33 1
    26    13    14 1
    27    13    18 2
    28    14    15 ar
    29    14    34 1
    30    15    16 ar
    31    15    35 1
    32    16    17 ar
    33    16    19 1
    34    17    18 ar
    35    17    36 1
    36    18    37 1
    37    19    20 2
    38    19    38 1
    39    20    21 1
    40    21    39 1
@<TRIPOS>SUBSTRUCTURE
     1 PSP         1 TEMP              0 ****  ****    0 ROOT
