@<TRIPOS>MOLECULE
PSQ
   32    31     1     0     0
SMALL
bcc


@<TRIPOS>ATOM
      1 S            0.0000     0.0000     0.0000 s6         1 PSQ       1.098700
      2 O            1.5210     0.0000     0.0000 o          1 PSQ      -0.598533
      3 O1          -0.3860     0.0000     1.3680 o          1 PSQ      -0.598533
      4 O2          -0.3860    -0.9700    -0.9630 o          1 PSQ      -0.598533
      5 P           -0.0640     1.9040    -2.1240 p5         1 PSQ       0.636200
      6 N           -0.6570     0.7820    -3.2290 nz         1 PSQ      -0.168700
      7 O3           1.4120     1.9590    -2.2220 o          1 PSQ      -0.482300
      8 N1          -0.7050     3.4220    -2.4690 n7         1 PSQ      -0.602300
      9 C           -1.8810     4.8730    -8.4150 c          1 PSQ       0.949600
     10 O4          -1.6950     6.1550    -8.7620 o          1 PSQ      -0.801800
     11 O5          -1.7000     3.9950    -9.2260 o          1 PSQ      -0.801800
     12 C1          -2.3120     4.5260    -7.0140 c3         1 PSQ      -0.198500
     13 C2          -1.0790     4.3180    -6.1350 c3         1 PSQ      -0.017400
     14 C3          -1.5180     3.9660    -4.7130 c3         1 PSQ      -0.058400
     15 C4          -0.2830     3.7580    -3.8340 c3         1 PSQ       0.189800
     16 N2          -0.4960     1.4580    -0.6070 n7         1 PSQ      -0.496200
     17 N3          -3.1090     3.2920    -7.0390 nz         1 PSQ       0.052400
     18 HN1         -0.3040    -0.1270    -3.0030 hn         1 PSQ       0.291133
     19 HN2         -0.3630     1.0340    -4.1520 hn         1 PSQ       0.291133
     20 HN11        -0.7240     4.1290    -1.7620 hn         1 PSQ       0.352800
     21 H11         -2.9110     5.3330    -6.6100 hx         1 PSQ       0.090700
     22 H21         -0.4910     5.2280    -6.1160 hc         1 PSQ       0.056200
     23 H22         -0.4800     3.5100    -6.5380 hc         1 PSQ       0.056200
     24 H31         -2.1050     3.0560    -4.7310 hc         1 PSQ       0.000700
     25 H32         -2.1160     4.7740    -4.3090 hc         1 PSQ       0.000700
     26 H41          0.3160     2.9500    -4.2360 h1         1 PSQ       0.026200
     27 H42          0.3050     4.6680    -3.8150 h1         1 PSQ       0.026200
     28 HN21        -1.0610     2.0660    -0.0480 hn         1 PSQ       0.369800
     29 HN31        -3.2110     2.9790    -7.9840 hn         1 PSQ       0.213467
     30 HN32        -2.6470     2.5850    -6.5010 hn         1 PSQ       0.213467
     31 HN3         -1.6570     0.7720    -3.1910 hn         1 PSQ       0.291133
     32 H33         -4.0180     3.4740    -6.6610 hn         1 PSQ       0.213467
@<TRIPOS>BOND
     1     1     2 1   
     2     1     3 1   
     3     1     4 1   
     4     1    16 1   
     5     5     6 1   
     6     5     7 2   
     7     5     8 1   
     8     5    16 1   
     9     6    18 1   
    10     6    19 1   
    11     6    31 1   
    12     8    15 1   
    13     8    20 1   
    14     9    10 1   
    15     9    11 1   
    16     9    12 1   
    17    12    13 1   
    18    12    17 1   
    19    12    21 1   
    20    13    14 1   
    21    13    22 1   
    22    13    23 1   
    23    14    15 1   
    24    14    24 1   
    25    14    25 1   
    26    15    26 1   
    27    15    27 1   
    28    16    28 1   
    29    17    29 1   
    30    17    30 1   
    31    17    32 1   
@<TRIPOS>SUBSTRUCTURE
     1 PSQ         1 TEMP              0 ****  ****    0 ROOT
