@<TRIPOS>MOLECULE
molecule
   54    53     1     0     0
SMALL
bcc


@<TRIPOS>ATOM
      1 O23          0.0000     0.0000     0.0000 o          1 PSR      -0.911833
      2 P24          1.6170     0.0000     0.0000 p5         1 PSR       1.165900
      3 O25          2.2590     0.0000     1.3570 o          1 PSR      -0.911833
      4 O26          1.9890     1.2690    -0.9320 o          1 PSR      -0.911833
      5 O27          2.0020    -1.2560    -0.9410 os         1 PSR      -0.592200
      6 C28          1.4320    -1.3230    -2.2430 c3         1 PSR       0.233400
      7 C29          1.9110    -2.5890    -2.9970 c3         1 PSR      -0.066000
      8 C30          3.4510    -2.5320    -3.1350 c3         1 PSR      -0.068600
      9 C31          1.5670    -3.8460    -2.1730 c3         1 PSR      -0.068600
     10 C32          1.2880    -2.6640    -4.4220 c3         1 PSR       0.095100
     11 O33          1.6510    -1.5080    -5.1700 oh         1 PSR      -0.554800
     12 C34         -0.2390    -2.7260    -4.4360 c          1 PSR       0.637100
     13 O35         -0.9370    -1.7140    -4.4170 o          1 PSR      -0.549100
     14 N36         -0.7230    -4.0230    -4.4960 ns         1 PSR      -0.611900
     15 C37         -2.1320    -4.3360    -4.5450 c3         1 PSR       0.130000
     16 C38         -2.6730    -4.5000    -3.1320 c3         1 PSR      -0.195400
     17 C39         -1.9680    -5.6030    -2.3630 c          1 PSR       0.688100
     18 O40         -1.0630    -6.2820    -2.8410 o          1 PSR      -0.617100
     19 N41         -2.4750    -5.7360    -1.0790 ns         1 PSR      -0.590900
     20 C42         -1.9820    -6.7140    -0.1380 c3         1 PSR       0.125000
     21 C43         -0.8370    -6.1920     0.7180 c3         1 PSR      -0.014300
     22 S1          -1.3080    -4.7160     1.6710 ss         1 PSR      -0.340700
     23 C1           0.2330    -4.3470     2.4510 c          1 PSR       0.636700
     24 O1           1.2440    -5.0140     2.2800 o          1 PSR      -0.537100
     25 C2           0.1580    -3.1240     3.3440 c3         1 PSR      -0.161400
     26 C3           1.4920    -2.8320     4.0290 c3         1 PSR      -0.065400
     27 C4           1.4130    -1.5860     4.8950 c3         1 PSR      -0.083100
     28 H281         1.7230    -0.4440    -2.8050 h1         1 PSR       0.050200
     29 H282         0.3520    -1.3480    -2.1580 h1         1 PSR       0.050200
     30 H301         3.7390    -1.5910    -3.5880 hc         1 PSR       0.027200
     31 H302         3.9050    -2.6150    -2.1550 hc         1 PSR       0.027200
     32 H303         3.7880    -3.3510    -3.7590 hc         1 PSR       0.027200
     33 H311         0.5420    -3.7830    -1.8280 hc         1 PSR       0.027200
     34 H312         1.6850    -4.7270    -2.7930 hc         1 PSR       0.027200
     35 H313         2.2320    -3.9130    -1.3210 hc         1 PSR       0.027200
     36 H321         1.6760    -3.5420    -4.9250 h1         1 PSR       0.000700
     37 H331         1.6830    -1.7240    -6.0870 ho         1 PSR       0.368000
     38 H361        -0.0650    -4.7780    -4.5090 hn         1 PSR       0.323500
     39 H371        -2.6620    -3.5330    -5.0430 h1         1 PSR       0.040700
     40 H372        -2.2770    -5.2580    -5.0950 h1         1 PSR       0.040700
     41 H381        -3.7300    -4.7320    -3.1870 hc         1 PSR       0.076700
     42 H382        -2.5470    -3.5650    -2.5980 hc         1 PSR       0.076700
     43 H411        -3.2160    -5.1270    -0.7920 hn         1 PSR       0.325500
     44 H421        -2.7960    -7.0120     0.5130 h1         1 PSR       0.042200
     45 H422        -1.6390    -7.5830    -0.6870 h1         1 PSR       0.042200
     46 H431        -0.0020    -5.9430     0.0740 h1         1 PSR       0.076700
     47 H432        -0.5290    -6.9710     1.4060 h1         1 PSR       0.076700
     48 HC21        -0.5990    -3.2880     4.1030 hc         1 PSR       0.091200
     49 HC22        -0.1250    -2.2670     2.7450 hc         1 PSR       0.091200
     50 HC31         1.7630    -3.6780     4.6500 hc         1 PSR       0.049700
     51 HC32         2.2540    -2.6900     3.2720 hc         1 PSR       0.049700
     52 HC41         0.8880    -0.8060     4.3580 hc         1 PSR       0.034033
     53 HC42         0.8810    -1.8160     5.8100 hc         1 PSR       0.034033
     54 HC43         2.4150    -1.2490     5.1340 hc         1 PSR       0.034033
@<TRIPOS>BOND
     1     1     2 1
     2     2     3 1
     3     2     4 1
     4     2     5 1
     5     5     6 1
     6     6     7 1
     7     6    28 1
     8     6    29 1
     9     7     8 1
    10     7     9 1
    11     7    10 1
    12     8    30 1
    13     8    31 1
    14     8    32 1
    15     9    33 1
    16     9    34 1
    17     9    35 1
    18    10    11 1
    19    10    12 1
    20    10    36 1
    21    11    37 1
    22    12    13 2
    23    12    14 1
    24    14    15 1
    25    14    38 1
    26    15    16 1
    27    15    39 1
    28    15    40 1
    29    16    17 1
    30    16    41 1
    31    16    42 1
    32    17    18 2
    33    17    19 1
    34    19    20 1
    35    19    43 1
    36    20    21 1
    37    20    44 1
    38    20    45 1
    39    21    22 1
    40    21    46 1
    41    21    47 1
    42    22    23 1
    43    23    24 2
    44    23    25 1
    45    25    26 1
    46    25    48 1
    47    25    49 1
    48    26    27 1
    49    26    50 1
    50    26    51 1
    51    27    52 1
    52    27    53 1
    53    27    54 1
@<TRIPOS>SUBSTRUCTURE
     1 PSR         1 TEMP              0 ****  ****    0 ROOT
