@<TRIPOS>MOLECULE
molecule
   28    27     1     0     0
SMALL
bcc


@<TRIPOS>ATOM
      1 CAA          0.0000     0.0000     0.0000 c3         1 PSX      -0.095100
      2 C6           1.5300     0.0000     0.0000 c3         1 PSX      -0.112400
      3 C5           2.0400     0.0000     1.4430 c3         1 PSX       0.151100
      4 OC5          1.6620     1.2210     2.0820 oh         1 PSX      -0.575800
      5 C4           3.5650    -0.1250     1.4450 c3         1 PSX      -0.082700
      6 CAB          4.1800     1.1180     0.7990 c3         1 PSX      -0.071100
      7 C3           4.0640    -0.2500     2.8860 c3         1 PSX       0.190100
      8 OC3          3.6810     0.9100     3.6260 oh         1 PSX      -0.595800
      9 C2           5.5890    -0.3770     2.8890 c3         1 PSX      -0.260600
     10 P1           6.1720    -0.6750     4.5900 p5         1 PSX       1.052700
     11 O2P          5.6660     0.3950     5.4790 o          1 PSX      -0.918833
     12 O1P          5.6260    -2.1000     5.1030 o          1 PSX      -0.918833
     13 O3P          7.7810    -0.6760     4.6140 o          1 PSX      -0.918833
     14 HAA1        -0.3610     0.9880     0.2600 hc         1 PSX       0.019700
     15 HAA2        -0.3610    -0.7190     0.7250 hc         1 PSX       0.019700
     16 HAA3        -0.3610    -0.2680    -0.9860 hc         1 PSX       0.019700
     17 H61          1.8910    -0.8850    -0.5110 hc         1 PSX       0.043200
     18 H62          1.8910     0.8850    -0.5110 hc         1 PSX       0.043200
     19 H5           1.6080    -0.8370     1.9790 h1         1 PSX       0.021700
     20 HOC5         0.8760     1.0830     2.5850 ho         1 PSX       0.373000
     21 H4           3.8560    -1.0050     0.8850 hc         1 PSX       0.039700
     22 HAB1         4.8160     1.6210     1.5170 hc         1 PSX       0.028367
     23 HAB2         3.3900     1.7890     0.4840 hc         1 PSX       0.028367
     24 HAB3         4.7690     0.8240    -0.0610 hc         1 PSX       0.028367
     25 H3           3.6280    -1.1300     3.3440 h1         1 PSX       0.033700
     26 HOC3         3.2610     0.6480     4.4280 ho         1 PSX       0.404000
     27 H21          5.8830    -1.2050     2.2560 hc         1 PSX       0.026700
     28 H22          6.0270     0.5390     2.5120 hc         1 PSX       0.026700
@<TRIPOS>BOND
     1     1     2 1
     2     1    14 1
     3     1    15 1
     4     1    16 1
     5     2     3 1
     6     2    17 1
     7     2    18 1
     8     3     4 1
     9     3     5 1
    10     3    19 1
    11     4    20 1
    12     5     6 1
    13     5     7 1
    14     5    21 1
    15     6    22 1
    16     6    23 1
    17     6    24 1
    18     7     8 1
    19     7     9 1
    20     7    25 1
    21     8    26 1
    22     9    10 1
    23     9    27 1
    24     9    28 1
    25    10    11 1
    26    10    12 1
    27    10    13 1
@<TRIPOS>SUBSTRUCTURE
     1 PSX         1 TEMP              0 ****  ****    0 ROOT
