@<TRIPOS>MOLECULE
PSX
   28    27     1     0     0
SMALL
bcc


@<TRIPOS>ATOM
      1 CAA         0.0180   -0.3920    0.0370 c3        1 PSX     -0.083100
      2 C6          1.4940   -0.0890    0.0290 c3        1 PSX     -0.082400
      3 C5          2.0330    0.1370    1.4420 c3        1 PSX      0.156100
      4 OC5         1.4670    1.3600    1.9040 oh        1 PSX     -0.657800
      5 C4          3.5650    0.1330    1.4700 c3        1 PSX     -0.108700
      6 CAB         4.1470    1.3320    0.7620 c3        1 PSX     -0.067100
      7 C3          4.0950    0.0290    2.9190 c3        1 PSX      0.204100
      8 OC3         3.8070    1.2780    3.5600 oh        1 PSX     -0.715800
      9 C2          5.5460   -0.3410    2.9820 c3        1 PSX     -0.308600
     10 P1          5.8280   -1.1820    4.5810 p5        1 PSX      1.220700
     11 O2P         5.1700   -0.1740    5.5130 o         1 PSX     -0.951833
     12 O1P         5.0860   -2.4890    4.4460 o         1 PSX     -0.951833
     13 O3P         7.3270   -1.2900    4.6900 o         1 PSX     -0.951833
     14 HAA1       -0.3720   -0.4910   -1.0040 hc        1 PSX      0.019367
     15 HAA2       -0.1840   -1.3460    0.5820 hc        1 PSX      0.019367
     16 HAA3       -0.5360    0.4290    0.5530 hc        1 PSX      0.019367
     17 H61         1.6860    0.8290   -0.5850 hc        1 PSX      0.033200
     18 H62         2.0560   -0.9390   -0.4360 hc        1 PSX      0.033200
     19 H5          1.6620   -0.6910    2.1150 h1        1 PSX      0.036700
     20 HOC5        2.0030    1.6400    2.6620 ho        1 PSX      0.446000
     21 H4          3.9030   -0.8040    0.9460 hc        1 PSX      0.044700
     22 HAB1        3.7500    2.2730    1.2160 hc        1 PSX      0.019033
     23 HAB2        3.8910    1.3210   -0.3260 hc        1 PSX      0.019033
     24 HAB3        5.2580    1.3250    0.8780 hc        1 PSX      0.019033
     25 H3          3.5120   -0.7810    3.4560 h1        1 PSX      0.055700
     26 HOC3        4.2200    1.1670    4.4510 ho        1 PSX      0.482000
     27 H21         6.2050    0.5480    2.9430 hc        1 PSX      0.025200
     28 H22         5.8240   -1.0470    2.1750 hc        1 PSX      0.025200
@<TRIPOS>BOND
     1    1    2 1   
     2    1   14 1   
     3    1   15 1   
     4    1   16 1   
     5    2    3 1   
     6    2   17 1   
     7    2   18 1   
     8    3    4 1   
     9    3    5 1   
    10    3   19 1   
    11    4   20 1   
    12    5    6 1   
    13    5    7 1   
    14    5   21 1   
    15    6   22 1   
    16    6   23 1   
    17    6   24 1   
    18    7    8 1   
    19    7    9 1   
    20    7   25 1   
    21    8   26 1   
    22    9   10 1   
    23    9   27 1   
    24    9   28 1   
    25   10   11 1   
    26   10   12 1   
    27   10   13 1   
@<TRIPOS>SUBSTRUCTURE
     1 PSX         1 TEMP              0 ****  ****    0 ROOT
