@<TRIPOS>MOLECULE
molecule
   20    20     1     0     0
SMALL
bcc


@<TRIPOS>ATOM
      1 C1           0.0000     0.0000     0.0000 ca         1 PSY      -0.115000
      2 C2           1.3830     0.0000     0.0000 ca         1 PSY      -0.114500
      3 C3          -0.6950     0.0060     1.1960 ca         1 PSY      -0.114500
      4 C4           2.0730     0.0000     1.1960 ca         1 PSY      -0.116500
      5 C5          -0.0080     0.0120     2.3940 ca         1 PSY      -0.116500
      6 C6           1.3800     0.0020     2.3970 ca         1 PSY       0.089100
      7 O1           2.0570     0.0080     3.5750 os         1 PSY      -0.452800
      8 S            2.3550    -1.3800     4.1260 sy         1 PSY       1.520400
      9 O2           2.8760    -1.1890     5.4340 o          1 PSY      -0.632800
     10 O3           1.2080    -2.1730     3.8550 o          1 PSY      -0.632800
     11 C7           3.6660    -2.0550     3.1610 ce         1 PSY      -0.417100
     12 C8           4.8270    -2.3020     3.7140 c2         1 PSY      -0.042000
     13 H1          -0.5400    -0.0020    -0.9390 ha         1 PSY       0.137000
     14 H2           1.9240    -0.0030    -0.9380 ha         1 PSY       0.141500
     15 H3          -1.7780     0.0110     1.1930 ha         1 PSY       0.141500
     16 H4           3.1570    -0.0040     1.1960 ha         1 PSY       0.148000
     17 H5          -0.5520     0.0160     3.3310 ha         1 PSY       0.148000
     18 H7           3.5110    -2.2660     2.1100 h4         1 PSY       0.169000
     19 H8           5.6320    -2.7170     3.1210 ha         1 PSY       0.130000
     20 H8A          4.9820    -2.0910     4.7650 ha         1 PSY       0.130000
@<TRIPOS>BOND
     1     3     1 ar
     2     1     2 ar
     3     1    13 1
     4     2     4 ar
     5     2    14 1
     6     3     5 ar
     7     3    15 1
     8     6     4 ar
     9     4    16 1
    10     5     6 ar
    11     5    17 1
    12     6     7 1
    13     8     7 1
    14    10     8 2
    15    11     8 1
    16     8     9 2
    17    12    11 2
    18    11    18 1
    19    12    19 1
    20    12    20 1
@<TRIPOS>SUBSTRUCTURE
     1 PSY         1 TEMP              0 ****  ****    0 ROOT
