@<TRIPOS>MOLECULE
molecule
   36    37     1     0     0
SMALL
bcc


@<TRIPOS>ATOM
      1 O1T          0.0000     0.0000     0.0000 o          1 PSZ      -0.847800
      2 C3A          1.3490     0.0000     0.0000 c          1 PSZ       0.911200
      3 O2T          1.9580     0.0000     1.0540 o          1 PSZ      -0.847800
      4 C2T          2.0810    -0.0010    -1.2670 cc         1 PSZ      -0.000700
      5 S            1.3500     0.0060    -2.8670 ss         1 PSZ      -0.161800
      6 C5T          2.8800     0.0000    -3.6200 cc         1 PSZ      -0.254100
      7 C4T          3.8650    -0.0060    -2.7080 cd         1 PSZ       0.182600
      8 C3T          3.4430    -0.0010    -1.3970 cd         1 PSZ      -0.198000
      9 N4A          5.2260    -0.0120    -3.0650 nu         1 PSZ      -0.817600
     10 C4A          5.6130    -0.0100    -4.4780 c3         1 PSZ       0.301100
     11 C4           7.1160    -0.0170    -4.5880 ca         1 PSZ      -0.118300
     12 C3           7.8210    -1.2150    -4.6420 ca         1 PSZ      -0.028200
     13 O3           7.1640    -2.4040    -4.5990 oh         1 PSZ      -0.519100
     14 C2           9.2040    -1.1790    -4.7430 ca         1 PSZ       0.338600
     15 C2A          9.9820    -2.4690    -4.8040 c3         1 PSZ      -0.124400
     16 N1           9.8450    -0.0280    -4.7860 nb         1 PSZ      -0.712000
     17 C6           9.2080     1.1250    -4.7370 ca         1 PSZ       0.435200
     18 C5           7.8280     1.1700    -4.6420 ca         1 PSZ      -0.135600
     19 C5A          7.1110     2.4940    -4.5920 c3         1 PSZ       0.244700
     20 O4P          8.0640     3.5560    -4.6640 os         1 PSZ      -0.584200
     21 P            7.6480     5.1100    -4.6370 p5         1 PSZ       1.171900
     22 O3P          6.9920     5.4660    -3.2100 o          1 PSZ      -0.905167
     23 O1P          8.9570     6.0200    -4.8670 o          1 PSZ      -0.905167
     24 O2P          6.6670     5.3780    -5.7120 o          1 PSZ      -0.905167
     25 H5T          3.0360    -0.0000    -4.6920 h4         1 PSZ       0.145000
     26 H3T          4.1210    -0.0050    -0.5520 ha         1 PSZ       0.156000
     27 HN4A         5.9290    -0.0400    -2.3540 hn         1 PSZ       0.438800
     28 H4A1         5.2120    -0.8910    -4.9640 h1         1 PSZ       0.039200
     29 H4A2         5.2200     0.8770    -4.9590 h1         1 PSZ       0.039200
     30 HO3          7.0900    -2.7530    -5.4720 ho         1 PSZ       0.393000
     31 H2A1         9.7100    -3.0940    -3.9610 hc         1 PSZ       0.030033
     32 H2A2        11.0430    -2.2530    -4.7660 hc         1 PSZ       0.030033
     33 H2A3         9.7500    -2.9870    -5.7270 hc         1 PSZ       0.030033
     34 H6           9.7710     2.0490    -4.7780 h4         1 PSZ       0.080100
     35 H5A1         6.4270     2.5650    -5.4300 h1         1 PSZ       0.049200
     36 H5A2         6.5560     2.5690    -3.6650 h1         1 PSZ       0.049200
@<TRIPOS>BOND
     1     1     2 1
     2     2     3 1
     3     2     4 1
     4     4     8 2
     5     4     5 1
     6     5     6 1
     7     6     7 2
     8     6    25 1
     9     7     8 1
    10     7     9 1
    11     8    26 1
    12     9    10 1
    13     9    27 1
    14    10    11 1
    15    10    28 1
    16    10    29 1
    17    11    12 ar
    18    11    18 ar
    19    12    13 1
    20    12    14 ar
    21    13    30 1
    22    14    15 1
    23    14    16 ar
    24    15    31 1
    25    15    32 1
    26    15    33 1
    27    16    17 ar
    28    17    18 ar
    29    17    34 1
    30    18    19 1
    31    19    20 1
    32    19    35 1
    33    19    36 1
    34    20    21 1
    35    21    24 1
    36    21    22 1
    37    21    23 1
@<TRIPOS>SUBSTRUCTURE
     1 PSZ         1 TEMP              0 ****  ****    0 ROOT
