@<TRIPOS>MOLECULE
PT1
   34    36     1     0     0
SMALL
bcc


@<TRIPOS>ATOM
      1 C2           0.0000     0.0000     0.0000 ca         1 PT1       0.634300
      2 C3           1.4190     0.0000     0.0000 ca         1 PT1       0.072000
      3 C5           2.0880     0.0000     1.2490 ca         1 PT1       0.515000
      4 N6           2.1210     0.0010    -1.1300 nb         1 PT1      -0.476000
      5 C7           0.0400     0.0010     2.3130 ca         1 PT1       0.749900
      6 N9           1.3580     0.0050     2.3720 nb         1 PT1      -0.620000
      7 C10          3.4350     0.0000    -1.0780 ca         1 PT1       0.240300
      8 N11         -0.6740     0.0010     3.4950 nv         1 PT1      -0.639500
      9 C12          4.0980     0.0000     0.1480 ca         1 PT1       0.338900
     10 C21          5.3730     0.0020    -8.7430 c          1 PT1       0.981200
     11 O22          4.6150     0.0010    -9.6930 o          1 PT1      -0.892800
     12 O1          -0.6930     0.0010    -1.1610 oh         1 PT1      -0.570300
     13 N4          -0.6290     0.0010     1.1630 nb         1 PT1      -0.718000
     14 N8           3.4230    -0.0010     1.2780 nb         1 PT1      -0.533000
     15 C13          4.2310     0.0010    -2.3560 c3         1 PT1       0.133500
     16 N14          3.3170     0.0020    -3.5020 nu         1 PT1      -0.462600
     17 C15          3.8260     0.0020    -4.7950 ca         1 PT1       0.033600
     18 C16          2.9550     0.0030    -5.8820 ca         1 PT1      -0.220500
     19 C17          5.2010     0.0080    -5.0020 ca         1 PT1      -0.220500
     20 C18          3.4530     0.0030    -7.1600 ca         1 PT1      -0.029500
     21 C19          5.7050     0.0030    -6.2770 ca         1 PT1      -0.029500
     22 C20          4.8360     0.0030    -7.3710 ca         1 PT1      -0.150600
     23 O23          6.7040     0.0020    -8.9450 o          1 PT1      -0.892800
     24 H111        -0.9310    -0.8660     3.9250 hn         1 PT1       0.279800
     25 H112        -0.9340     0.8680     3.9230 hn         1 PT1       0.279800
     26 H12          5.1810    -0.0000     0.1710 h4         1 PT1      -0.004900
     27 HO1         -1.4010    -0.6190    -1.1060 ho         1 PT1       0.419000
     28 H131         4.8560    -0.8830    -2.3930 h1         1 PT1       0.024200
     29 H132         4.8560     0.8860    -2.3920 h1         1 PT1       0.024200
     30 H14          2.3280     0.0310    -3.3530 hn         1 PT1       0.311800
     31 H16          1.8840    -0.0000    -5.7190 ha         1 PT1       0.090500
     32 H17          5.8760     0.0160    -4.1550 ha         1 PT1       0.090500
     33 H18          2.7760     0.0440    -8.0050 ha         1 PT1       0.121000
     34 H19          6.7760     0.0440    -6.4370 ha         1 PT1       0.121000
@<TRIPOS>BOND
     1     1     2 ar  
     2     1    12 1   
     3     1    13 ar  
     4     2     3 ar  
     5     2     4 ar  
     6     3     6 ar  
     7     3    14 ar  
     8     4     7 ar  
     9     5     6 ar  
    10     5     8 1   
    11     5    13 ar  
    12     7     9 ar  
    13     7    15 1   
    14     8    24 1   
    15     8    25 1   
    16     9    14 ar  
    17     9    26 1   
    18    10    11 1   
    19    10    22 1   
    20    10    23 1   
    21    12    27 1   
    22    15    16 1   
    23    15    28 1   
    24    15    29 1   
    25    16    17 1   
    26    16    30 1   
    27    17    18 ar  
    28    17    19 ar  
    29    18    20 ar  
    30    18    31 1   
    31    19    21 ar  
    32    19    32 1   
    33    20    22 ar  
    34    20    33 1   
    35    21    22 ar  
    36    21    34 1   
@<TRIPOS>SUBSTRUCTURE
     1 PT1         1 TEMP              0 ****  ****    0 ROOT
