@<TRIPOS>MOLECULE
molecule
   25    24     1     0     0
SMALL
bcc


@<TRIPOS>ATOM
      1 O1           0.0000     0.0000     0.0000 o          1 PT3      -0.835800
      2 O11          1.9450    -0.0080    -1.0470 o          1 PT3      -0.835800
      3 C1           1.3430     0.0000     0.0000 c          1 PT3       0.875600
      4 C2           2.0960     0.0000     1.3050 c3         1 PT3       0.047100
      5 O2           3.5000    -0.0000     1.0430 oh         1 PT3      -0.590800
      6 C3           1.7270    -1.2490     2.1070 c3         1 PT3       0.108100
      7 O3           2.0720    -2.4150     1.3570 oh         1 PT3      -0.541800
      8 C4           2.4810    -1.2490     3.4110 c          1 PT3       0.634100
      9 O41          3.2390    -2.1590     3.6740 o          1 PT3      -0.615100
     10 N4           2.3130    -0.2390     4.2860 ns         1 PT3      -0.599900
     11 C41          3.0450    -0.2380     5.5560 c3         1 PT3       0.114000
     12 C42          2.6760     1.0100     6.3570 c3         1 PT3      -0.103400
     13 C43          3.4410     1.0090     7.6830 c3         1 PT3      -0.089100
     14 H21          1.8340     0.8850     1.8730 h1         1 PT3       0.010700
     15 HO2          3.7770     0.8710     0.8130 ho         1 PT3       0.388000
     16 H31          0.6620    -1.2500     2.3050 h1         1 PT3       0.065700
     17 HO3          1.4740    -3.1120     1.5670 ho         1 PT3       0.384000
     18 H41N         1.6640     0.4960     4.0830 hn         1 PT3       0.313500
     19 H411         4.1100    -0.2390     5.3580 h1         1 PT3       0.045200
     20 H412         2.7830    -1.1230     6.1240 h1         1 PT3       0.045200
     21 H421         1.6110     1.0100     6.5550 hc         1 PT3       0.042700
     22 H422         2.9380     1.8940     5.7890 hc         1 PT3       0.042700
     23 H431         4.5060     1.0090     7.4850 hc         1 PT3       0.031367
     24 H432         3.1790     0.1250     8.2510 hc         1 PT3       0.031367
     25 H433         3.1790     1.8940     8.2510 hc         1 PT3       0.031367
@<TRIPOS>BOND
     1     1     3 1
     2     2     3 1
     3     3     4 1
     4     4     5 1
     5     4     6 1
     6     4    14 1
     7     5    15 1
     8     6     7 1
     9     6     8 1
    10     6    16 1
    11     7    17 1
    12     8     9 2
    13     8    10 1
    14    10    11 1
    15    10    18 1
    16    11    12 1
    17    11    19 1
    18    11    20 1
    19    12    13 1
    20    12    21 1
    21    12    22 1
    22    13    23 1
    23    13    24 1
    24    13    25 1
@<TRIPOS>SUBSTRUCTURE
     1 PT3         1 TEMP              0 ****  ****    0 ROOT
