@<TRIPOS>MOLECULE
PT6
   44    46     1     0     0
SMALL
bcc


@<TRIPOS>ATOM
      1 O1           0.0000     0.0000     0.0000 o          1 PT6      -0.703500
      2 C18          1.2210     0.0000     0.0000 c          1 PT6       0.612700
      3 N1           1.8930     0.0000     1.1660 n          1 PT6       0.106000
      4 C7           1.1480    -0.0000     2.4280 c3         1 PT6       0.072300
      5 C6           0.8000    -1.4160     2.8050 ca         1 PT6      -0.093300
      6 C5           1.2930    -2.4710     2.0600 ca         1 PT6      -0.119000
      7 C4           0.9760    -3.7730     2.4030 ca         1 PT6      -0.080000
      8 C3           0.1660    -4.0230     3.4940 ca         1 PT6      -0.127000
      9 C2          -0.3300    -2.9670     4.2450 ca         1 PT6       0.039600
     10 N           -1.1500    -3.2160     5.3490 nv         1 PT6      -0.530200
     11 C1          -0.0060    -1.6600     3.9010 ca         1 PT6      -0.099300
     12 C           -0.5370    -0.5100     4.7170 c3         1 PT6       0.054200
     13 C17          1.9200    -0.0060    -1.2130 cc         1 PT6      -0.381200
     14 C10          3.3020    -0.0070    -1.1940 cd         1 PT6       0.225100
     15 C9           3.9680    -0.0020     0.0480 cd         1 PT6      -0.229000
     16 C8           3.2510    -0.0010     1.1930 cc         1 PT6      -0.102400
     17 O            4.0060    -0.0140    -2.3520 os         1 PT6      -0.300900
     18 C11          3.2540    -0.0200    -3.5680 c3         1 PT6       0.197400
     19 C12          4.2140    -0.0260    -4.7590 c3         1 PT6       0.065900
     20 C13          3.4230    -0.0320    -6.0420 cc         1 PT6       0.006600
     21 S            2.8880    -1.4730    -6.8960 ss         1 PT6      -0.273800
     22 C16          2.1240    -0.4900    -8.1380 cc         1 PT6       0.010900
     23 C15          2.3020     0.8010    -7.8590 cd         1 PT6      -0.126000
     24 C14          3.0150     1.0550    -6.6980 cd         1 PT6      -0.122000
     25 H17          1.3840    -0.0110    -2.1540 ha         1 PT6       0.155000
     26 H71C         1.7570     0.4420     3.2070 h1         1 PT6       0.049200
     27 H72C         0.2380     0.5760     2.3100 h1         1 PT6       0.049200
     28 H8           3.7670     0.0010     2.1450 h4         1 PT6       0.129000
     29 H5           1.9280    -2.2780     1.2040 ha         1 PT6       0.110000
     30 H4           1.3640    -4.5970     1.8160 ha         1 PT6       0.102000
     31 H3          -0.0820    -5.0430     3.7620 ha         1 PT6       0.107000
     32 HN1         -0.7930    -3.7280     6.1310 hn         1 PT6       0.271800
     33 HN2         -2.1080    -2.9270     5.3350 hn         1 PT6       0.271800
     34 HC1         -1.2630     0.0420     4.1320 hc         1 PT6       0.011367
     35 HC2         -1.0110    -0.8920     5.6130 hc         1 PT6       0.011367
     36 HC3          0.2800     0.1460     4.9910 hc         1 PT6       0.011367
     37 H9           5.0500    -0.0020     0.0850 ha         1 PT6       0.132000
     38 H111         2.6310     0.8650    -3.6110 h1         1 PT6       0.015200
     39 H112         2.6290    -0.9040    -3.6020 h1         1 PT6       0.015200
     40 H121         4.8370    -0.9110    -4.7150 hc         1 PT6       0.031200
     41 H122         4.8390     0.8580    -4.7240 hc         1 PT6       0.031200
     42 H14          3.2300     2.0590    -6.3540 ha         1 PT6       0.123000
     43 H16          1.5920    -0.8750    -9.0000 h4         1 PT6       0.149000
     44 H15          1.9140     1.5930    -8.4880 ha         1 PT6       0.121000
@<TRIPOS>BOND
     1     1     2 2   
     2     2     3 1   
     3     2    13 1   
     4     3     4 1   
     5     3    16 1   
     6     4     5 1   
     7     4    26 1   
     8     4    27 1   
     9     5     6 ar  
    10     5    11 ar  
    11     6     7 ar  
    12     6    29 1   
    13     7     8 ar  
    14     7    30 1   
    15     8     9 ar  
    16     8    31 1   
    17     9    10 1   
    18     9    11 ar  
    19    10    32 1   
    20    10    33 1   
    21    11    12 1   
    22    12    34 1   
    23    12    35 1   
    24    12    36 1   
    25    13    14 2   
    26    13    25 1   
    27    14    15 1   
    28    14    17 1   
    29    15    16 2   
    30    15    37 1   
    31    16    28 1   
    32    17    18 1   
    33    18    19 1   
    34    18    38 1   
    35    18    39 1   
    36    19    20 1   
    37    19    40 1   
    38    19    41 1   
    39    20    21 1   
    40    20    24 2   
    41    21    22 1   
    42    22    23 2   
    43    22    43 1   
    44    23    24 1   
    45    23    44 1   
    46    24    42 1   
@<TRIPOS>SUBSTRUCTURE
     1 PT6         1 TEMP              0 ****  ****    0 ROOT
