@<TRIPOS>MOLECULE
PTB
   33    34     1     0     0
SMALL
bcc


@<TRIPOS>ATOM
      1 N           1.1790    0.2750   -0.3820 n3        1 PTB     -0.808200
      2 CA          2.2050    0.3010    0.6640 c3        1 PTB      0.090500
      3 C           3.1950   -0.8400    0.4550 c         1 PTB      0.526600
      4 O           3.4530   -1.7050    1.2880 o         1 PTB     -0.488100
      5 CB          1.5150    0.2230    2.0440 c3        1 PTB     -0.092400
      6 CG          0.0190    0.2980    1.7720 c3        1 PTB     -0.097400
      7 CD         -0.1370    0.2380    0.2440 c3        1 PTB      0.155800
      8 C2          3.8750   -0.7990   -0.8550 cc        1 PTB      0.375900
      9 N3          3.9700    0.1630   -1.7970 nd        1 PTB     -0.315000
     10 N4          4.6870   -0.2910   -2.8070 nd        1 PTB     -0.359000
     11 C5          5.0700   -1.5610   -2.5440 cc        1 PTB      0.482700
     12 O1          4.5730   -1.9360   -1.2890 os        1 PTB     -0.354800
     13 C6          5.8740   -2.5660   -3.3050 c3        1 PTB     -0.068300
     14 C7          7.0920   -2.9520   -2.4720 c3        1 PTB     -0.092767
     15 C8          6.3230   -1.9700   -4.6320 c3        1 PTB     -0.092767
     16 C9          5.0090   -3.7960   -3.5560 c3        1 PTB     -0.092767
     17 HN          1.2820    1.0570   -0.9990 hn        1 PTB      0.379800
     18 HA          2.8240    1.2470    0.6100 h1        1 PTB      0.069700
     19 HB1         1.8550    1.0710    2.6860 hc        1 PTB      0.065700
     20 HB2         1.7800   -0.7310    2.5660 hc        1 PTB      0.065700
     21 HG1        -0.4130    1.2480    2.1730 hc        1 PTB      0.051700
     22 HG2        -0.5210   -0.5520    2.2540 hc        1 PTB      0.051700
     23 HD1        -0.7920    1.0750   -0.1200 h1        1 PTB      0.047700
     24 HD2        -0.6210   -0.7320   -0.0590 h1        1 PTB      0.047700
     25 H71         7.7440   -2.0630   -2.3000 hc        1 PTB      0.050033
     26 H72         6.7700   -3.3620   -1.4850 hc        1 PTB      0.050033
     27 H73         7.6810   -3.7300   -3.0130 hc        1 PTB      0.050033
     28 H81         6.9230   -2.7280   -5.1920 hc        1 PTB      0.050033
     29 H82         6.9550   -1.0650   -4.4630 hc        1 PTB      0.050033
     30 H83         5.4410   -1.6800   -5.2510 hc        1 PTB      0.050033
     31 H91         4.1230   -3.5290   -4.1800 hc        1 PTB      0.050033
     32 H92         4.6530   -4.2220   -2.5870 hc        1 PTB      0.050033
     33 H93         5.6080   -4.5690   -4.0950 hc        1 PTB      0.050033
@<TRIPOS>BOND
     1    1    2 1   
     2    1    7 1   
     3    1   17 1   
     4    2    3 1   
     5    2    5 1   
     6    2   18 1   
     7    3    4 2   
     8    3    8 1   
     9    5    6 1   
    10    5   19 1   
    11    5   20 1   
    12    6    7 1   
    13    6   21 1   
    14    6   22 1   
    15    7   23 1   
    16    7   24 1   
    17    8    9 2   
    18    8   12 1   
    19    9   10 1   
    20   10   11 2   
    21   11   12 1   
    22   11   13 1   
    23   13   14 1   
    24   13   15 1   
    25   13   16 1   
    26   14   25 1   
    27   14   26 1   
    28   14   27 1   
    29   15   28 1   
    30   15   29 1   
    31   15   30 1   
    32   16   31 1   
    33   16   32 1   
    34   16   33 1   
@<TRIPOS>SUBSTRUCTURE
     1 PTB         1 TEMP              0 ****  ****    0 ROOT
