@<TRIPOS>MOLECULE
molecule
   32    33     1     0     0
SMALL
bcc


@<TRIPOS>ATOM
      1 C1           0.0000     0.0000     0.0000 c          1 PTC       0.679100
      2 O1           1.2120     0.0000     0.0000 o          1 PTC      -0.567100
      3 N1          -0.6750     0.0000     1.1660 ns         1 PTC      -0.611900
      4 C2           0.0570     0.0000     2.4360 c3         1 PTC       0.108300
      5 CA          -0.6770     1.2750    -2.1590 cx         1 PTC      -0.170700
      6 C           -1.9050     1.6630    -2.9410 c          1 PTC       0.920600
      7 O           -2.2660     0.9850    -3.8740 o          1 PTC      -0.863800
      8 CB           0.0700     0.0130    -2.5960 cx         1 PTC      -0.010400
      9 CG           1.5710     0.0120    -2.4640 ca         1 PTC      -0.112300
     10 CD1          2.3110    -1.0240    -3.0040 ca         1 PTC      -0.095000
     11 CD2          2.2070     1.0480    -1.8060 ca         1 PTC      -0.095000
     12 CE1          3.6870    -1.0270    -2.8840 ca         1 PTC      -0.168500
     13 CE2          3.5830     1.0500    -1.6840 ca         1 PTC      -0.168500
     14 CZ           4.3270     0.0090    -2.2200 ca         1 PTC       0.233100
     15 OH           5.6810     0.0080    -2.1000 os         1 PTC      -0.463500
     16 C7          -0.7530     0.0070    -1.3060 cx         1 PTC      -0.257700
     17 P            6.4460     0.7480    -3.3080 p5         1 PTC       1.151900
     18 O1P          6.0270     0.1520    -4.5970 o          1 PTC      -0.901500
     19 O2P          6.0770     2.3150    -3.2970 o          1 PTC      -0.901500
     20 O3P          8.0360     0.5690    -3.1260 o          1 PTC      -0.901500
     21 OXT         -2.5980     2.7610    -2.6000 o          1 PTC      -0.863800
     22 HN          -1.6750    -0.0430     1.1650 hn         1 PTC       0.297500
     23 H21          0.7210    -0.8550     2.4690 h1         1 PTC       0.022033
     24 H22          0.6370     0.9110     2.5180 h1         1 PTC       0.022033
     25 H23         -0.6460    -0.0560     3.2580 h1         1 PTC       0.022033
     26 HA          -0.0460     2.0570    -1.7530 hc         1 PTC       0.086700
     27 HB          -0.3830    -0.5170    -3.4250 hc         1 PTC       0.090700
     28 HD1          1.8110    -1.8330    -3.5230 ha         1 PTC       0.093000
     29 HD2          1.6260     1.8610    -1.3880 ha         1 PTC       0.093000
     30 HE1          4.2650    -1.8400    -3.3060 ha         1 PTC       0.131500
     31 HE2          4.0810     1.8620    -1.1670 ha         1 PTC       0.131500
     32 H7          -1.6930    -0.5270    -1.3700 hc         1 PTC       0.068700
@<TRIPOS>BOND
     1     1     2 2
     2     1     3 1
     3     1    16 1
     4     3     4 1
     5     3    22 1
     6     4    23 1
     7     4    24 1
     8     4    25 1
     9     5     6 1
    10     5     8 1
    11     5    16 1
    12     5    26 1
    13     6     7 1
    14     6    21 1
    15     8     9 1
    16     8    16 1
    17     8    27 1
    18     9    10 ar
    19     9    11 ar
    20    10    12 ar
    21    10    28 1
    22    11    13 ar
    23    11    29 1
    24    12    14 ar
    25    12    30 1
    26    13    14 ar
    27    13    31 1
    28    14    15 1
    29    15    17 1
    30    16    32 1
    31    17    18 1
    32    17    19 1
    33    17    20 1
@<TRIPOS>SUBSTRUCTURE
     1 PTC         1 TEMP              0 ****  ****    0 ROOT
