@<TRIPOS>MOLECULE
PTD
   15    14     1     0     0
SMALL
bcc


@<TRIPOS>ATOM
      1 C1          0.0070    0.1110   -0.0290 c         1 PTD      0.564900
      2 C2          1.5050    0.0850    0.0180 c3        1 PTD     -0.205400
      3 C3          2.0160   -0.0070    1.4380 c3        1 PTD     -0.071400
      4 C4          3.5270   -0.0690    1.4630 c3        1 PTD     -0.205400
      5 C5          4.0540   -0.1230    2.8640 c         1 PTD      0.564900
      6 O1         -0.6240    0.7090   -0.9000 o         1 PTD     -0.520100
      7 O5          5.0950   -0.7090    3.1640 o         1 PTD     -0.520100
      8 HC1        -0.5080   -0.4620    0.7750 h4        1 PTD     -0.003800
      9 HC21        1.9190    0.9980   -0.4860 hc        1 PTD      0.076700
     10 HC22        1.8510   -0.8070   -0.5730 hc        1 PTD      0.076700
     11 HC31        1.5940   -0.9200    1.9350 hc        1 PTD      0.047700
     12 HC32        1.6630    0.8840    2.0230 hc        1 PTD      0.047700
     13 HC41        3.8890   -0.9590    0.8820 hc        1 PTD      0.076700
     14 HC42        3.9570    0.8460    0.9700 hc        1 PTD      0.076700
     15 HC5         3.4480    0.4150    3.6270 h4        1 PTD     -0.003800
@<TRIPOS>BOND
     1    1    2 1   
     2    1    6 2   
     3    1    8 1   
     4    2    3 1   
     5    2    9 1   
     6    2   10 1   
     7    3    4 1   
     8    3   11 1   
     9    3   12 1   
    10    4    5 1   
    11    4   13 1   
    12    4   14 1   
    13    5    7 2   
    14    5   15 1   
@<TRIPOS>SUBSTRUCTURE
     1 PTD         1 TEMP              0 ****  ****    0 ROOT
