@<TRIPOS>MOLECULE
molecule
   15    14     1     0     0
SMALL
bcc


@<TRIPOS>ATOM
      1 C1           0.0000     0.0000     0.0000 c          1 PTD       0.567900
      2 C2           1.5070     0.0000     0.0000 c3         1 PTD      -0.203400
      3 C3           2.0170     0.0000     1.4410 c3         1 PTD      -0.067400
      4 C4           3.5460    -0.0010     1.4420 c3         1 PTD      -0.203400
      5 C5           4.0490     0.0000     2.8620 c          1 PTD       0.567900
      6 O1          -0.6040     0.9050    -0.5240 o          1 PTD      -0.516600
      7 O5           4.7440    -0.9040     3.2570 o          1 PTD      -0.516600
      8 HC1         -0.5410    -0.8330     0.4320 h4         1 PTD      -0.003800
      9 HC21         1.8680     0.8840    -0.5110 hc         1 PTD       0.069700
     10 HC22         1.8680    -0.8840    -0.5110 hc         1 PTD       0.069700
     11 HC31         1.6560    -0.8840     1.9520 hc         1 PTD       0.049700
     12 HC32         1.6570     0.8850     1.9520 hc         1 PTD       0.049700
     13 HC41         3.9060    -0.8860     0.9320 hc         1 PTD       0.069700
     14 HC42         3.9080     0.8830     0.9300 hc         1 PTD       0.069700
     15 HC5          3.8120     0.8280     3.5190 h4         1 PTD      -0.003800
@<TRIPOS>BOND
     1     1     2 1
     2     1     6 2
     3     1     8 1
     4     2     3 1
     5     2     9 1
     6     2    10 1
     7     3     4 1
     8     3    11 1
     9     3    12 1
    10     4     5 1
    11     4    13 1
    12     4    14 1
    13     5     7 2
    14     5    15 1
@<TRIPOS>SUBSTRUCTURE
     1 PTD         1 TEMP              0 ****  ****    0 ROOT
