@<TRIPOS>MOLECULE
PTF
   19    19     1     0     0
SMALL
bcc


@<TRIPOS>ATOM
      1 C1          0.0640   -0.0010    0.0130 c3        1 PTF     -0.048000
      2 S2          1.8140   -0.0010    0.0710 ss        1 PTF     -0.282200
      3 C3          2.1160   -0.0000    1.8230 c3        1 PTF      0.036000
      4 C4          3.5800    0.0000    2.0350 ca        1 PTF     -0.075300
      5 C5          4.2790   -1.2090    2.1450 ca        1 PTF     -0.112000
      6 C6          5.6560   -1.2070    2.3570 ca        1 PTF     -0.131000
      7 C7          6.3470    0.0000    2.4630 ca        1 PTF     -0.124000
      8 C8          5.6560    1.2070    2.3560 ca        1 PTF     -0.131000
      9 C9          4.2790    1.2090    2.1440 ca        1 PTF     -0.112000
     10 H11        -0.3700   -0.9030    0.4970 h1        1 PTF      0.062033
     11 H12        -0.2110   -0.0010   -1.0680 h1        1 PTF      0.062033
     12 H13        -0.3700    0.9030    0.4960 h1        1 PTF      0.062033
     13 H31         1.6460    0.9030    2.2850 h1        1 PTF      0.064700
     14 H32         1.6460   -0.9030    2.2860 h1        1 PTF      0.064700
     15 H5          3.7370   -2.1630    2.0580 ha        1 PTF      0.135000
     16 H6          6.1980   -2.1600    2.4400 ha        1 PTF      0.132000
     17 H7          7.4340    0.0000    2.6310 ha        1 PTF      0.132000
     18 H8          6.1990    2.1600    2.4380 ha        1 PTF      0.132000
     19 H9          3.7370    2.1630    2.0560 ha        1 PTF      0.135000
@<TRIPOS>BOND
     1    1    2 1   
     2    1   10 1   
     3    1   11 1   
     4    1   12 1   
     5    2    3 1   
     6    3    4 1   
     7    3   13 1   
     8    3   14 1   
     9    4    5 ar  
    10    4    9 ar  
    11    5    6 ar  
    12    5   15 1   
    13    6    7 ar  
    14    6   16 1   
    15    7    8 ar  
    16    7   17 1   
    17    8    9 ar  
    18    8   18 1   
    19    9   19 1   
@<TRIPOS>SUBSTRUCTURE
     1 PTF         1 TEMP              0 ****  ****    0 ROOT
