@<TRIPOS>MOLECULE
molecule
   19    19     1     0     0
SMALL
bcc


@<TRIPOS>ATOM
      1 C1           0.0000     0.0000     0.0000 c3         1 PTF      -0.006000
      2 S2           1.8140     0.0000     0.0000 ss         1 PTF      -0.337200
      3 C3           2.1290     0.0000     1.7860 c3         1 PTF       0.063000
      4 C4           3.6160     0.0000     2.0320 ca         1 PTF      -0.077300
      5 C5           4.2970    -1.1970     2.1500 ca         1 PTF      -0.111000
      6 C6           5.6610    -1.1960     2.3750 ca         1 PTF      -0.128000
      7 C7           6.3420    -0.0000     2.4880 ca         1 PTF      -0.123000
      8 C8           5.6600     1.1970     2.3740 ca         1 PTF      -0.128000
      9 C9           4.2970     1.1960     2.1470 ca         1 PTF      -0.111000
     10 H11         -0.3610    -0.0000    -1.0210 h1         1 PTF       0.059033
     11 H12         -0.3610    -0.8840     0.5110 h1         1 PTF       0.059033
     12 H13         -0.3610     0.8850     0.5110 h1         1 PTF       0.059033
     13 H31          1.6900    -0.8850     2.2300 h1         1 PTF       0.062700
     14 H32          1.6890     0.8840     2.2310 h1         1 PTF       0.062700
     15 H5           3.7620    -2.1350     2.0620 ha         1 PTF       0.134000
     16 H6           6.1950    -2.1340     2.4660 ha         1 PTF       0.131000
     17 H7           7.4110    -0.0000     2.6640 ha         1 PTF       0.130000
     18 H8           6.1940     2.1350     2.4630 ha         1 PTF       0.131000
     19 H9           3.7630     2.1340     2.0580 ha         1 PTF       0.134000
@<TRIPOS>BOND
     1     1     2 1
     2     1    10 1
     3     1    11 1
     4     1    12 1
     5     2     3 1
     6     3     4 1
     7     3    13 1
     8     3    14 1
     9     4     5 ar
    10     4     9 ar
    11     5     6 ar
    12     5    15 1
    13     6     7 ar
    14     6    16 1
    15     7     8 ar
    16     7    17 1
    17     8     9 ar
    18     8    18 1
    19     9    19 1
@<TRIPOS>SUBSTRUCTURE
     1 PTF         1 TEMP              0 ****  ****    0 ROOT
