@<TRIPOS>MOLECULE
molecule
   50    50     1     0     0
SMALL
bcc


@<TRIPOS>ATOM
      1 C1           0.0000     0.0000     0.0000 c3         1 PTG      -0.092100
      2 C2           1.5300     0.0000     0.0000 c3         1 PTG      -0.084400
      3 C3           2.0400     0.0000     1.4420 c3         1 PTG      -0.082400
      4 C4           3.5700    -0.0010     1.4420 c3         1 PTG      -0.078400
      5 C5           4.0800     0.0000     2.8850 c3         1 PTG      -0.049200
      6 C6           5.5870    -0.0010     2.8850 c2         1 PTG      -0.154200
      7 C7           6.2550     0.9460     3.5480 ce         1 PTG      -0.159000
      8 C8           7.7170     0.9450     3.5480 ce         1 PTG      -0.036000
      9 C10          8.3950     1.9050     4.2200 cf         1 PTG      -0.225400
     10 C11          7.8330     3.0150     4.9970 c          1 PTG       0.571500
     11 O12          6.6480     3.2470     5.1600 o          1 PTG      -0.543100
     12 C13          8.9480     3.7980     5.5450 ce         1 PTG      -0.270200
     13 C14         10.1160     3.2890     5.1890 c2         1 PTG      -0.088200
     14 C15          9.8950     2.0620     4.3380 c3         1 PTG      -0.017300
     15 C16         10.5160     2.2650     2.9550 c3         1 PTG      -0.022200
     16 C17         12.0170     2.2970     3.0760 c2         1 PTG      -0.227200
     17 C18         12.7490     1.4760     2.3640 c2         1 PTG      -0.131200
     18 C19         14.2510     1.5080     2.4860 c3         1 PTG      -0.063200
     19 C20         14.7640     0.1100     2.8360 c3         1 PTG      -0.059400
     20 C21         16.2890     0.1420     2.9600 c3         1 PTG      -0.183400
     21 C22         16.7940    -1.2350     3.3060 c          1 PTG       0.891600
     22 O23         16.0140    -2.1480     3.4400 o          1 PTG      -0.855800
     23 O24         18.1100    -1.4470     3.4650 o          1 PTG      -0.855800
     24 H1          -0.3610    -0.8850     0.5100 hc         1 PTG       0.031367
     25 H1A         -0.3610     0.8840     0.5110 hc         1 PTG       0.031367
     26 H1B         -0.3610     0.0000    -1.0210 hc         1 PTG       0.031367
     27 H2           1.8920    -0.8850    -0.5110 hc         1 PTG       0.040200
     28 H2A          1.8920     0.8850    -0.5110 hc         1 PTG       0.040200
     29 H3           1.6790     0.8850     1.9530 hc         1 PTG       0.040700
     30 H3A          1.6780    -0.8840     1.9530 hc         1 PTG       0.040700
     31 H4           3.9320     0.8830     0.9310 hc         1 PTG       0.044200
     32 H4A          3.9310    -0.8860     0.9320 hc         1 PTG       0.044200
     33 H5           3.7190     0.8850     3.3950 hc         1 PTG       0.050200
     34 H5A          3.7180    -0.8840     3.3960 hc         1 PTG       0.050200
     35 H6           6.1280    -0.7700     2.3480 ha         1 PTG       0.124000
     36 H7           5.7140     1.7150     4.0860 ha         1 PTG       0.165000
     37 H8           8.2580     0.1760     3.0100 ha         1 PTG       0.137000
     38 H13          8.8280     4.6810     6.1600 ha         1 PTG       0.150000
     39 H14         10.9560     3.3310     5.8720 ha         1 PTG       0.154000
     40 H15         10.3240     1.1930     4.8220 hc         1 PTG       0.083700
     41 H16         10.2230     1.4500     2.3050 hc         1 PTG       0.045200
     42 H16A        10.1680     3.2030     2.5370 hc         1 PTG       0.045200
     43 H17         12.4910     2.9980     3.7520 ha         1 PTG       0.123000
     44 H18         12.2760     0.7750     1.6880 ha         1 PTG       0.118000
     45 H19         14.5360     2.2030     3.2670 hc         1 PTG       0.038700
     46 H19A        14.6840     1.8260     1.5450 hc         1 PTG       0.038700
     47 H20         14.4800    -0.5850     2.0550 hc         1 PTG       0.047200
     48 H20A        14.3320    -0.2080     3.7770 hc         1 PTG       0.047200
     49 H21         16.7210     0.4600     2.0180 hc         1 PTG       0.027700
     50 H21A        16.5730     0.8380     3.7400 hc         1 PTG       0.027700
@<TRIPOS>BOND
     1     1     2 1
     2     1    24 1
     3     1    25 1
     4     1    26 1
     5     2     3 1
     6     2    27 1
     7     2    28 1
     8     3     4 1
     9     3    29 1
    10     3    30 1
    11     4     5 1
    12     4    31 1
    13     4    32 1
    14     5     6 1
    15     5    33 1
    16     5    34 1
    17     6     7 2
    18     6    35 1
    19     7     8 1
    20     7    36 1
    21     8     9 2
    22     8    37 1
    23     9    10 1
    24     9    14 1
    25    10    11 2
    26    12    13 2
    27    12    38 1
    28    13    14 1
    29    13    39 1
    30    14    15 1
    31    14    40 1
    32    15    16 1
    33    15    41 1
    34    15    42 1
    35    16    17 2
    36    16    43 1
    37    17    18 1
    38    17    44 1
    39    18    19 1
    40    18    45 1
    41    18    46 1
    42    19    20 1
    43    19    47 1
    44    19    48 1
    45    20    21 1
    46    20    49 1
    47    20    50 1
    48    21    22 1
    49    21    23 1
    50    12    10 1
@<TRIPOS>SUBSTRUCTURE
     1 PTG         1 TEMP              0 ****  ****    0 ROOT
