@<TRIPOS>MOLECULE
PTG
   50    50     1     0     0
SMALL
bcc


@<TRIPOS>ATOM
      1 C1          0.4240    0.6200    0.8600 c3        1 PTG     -0.091100
      2 C2          1.8290    0.3210    0.4040 c3        1 PTG     -0.080400
      3 C3          2.8410    0.6140    1.4910 c3        1 PTG     -0.081400
      4 C4          4.2500    0.3170    1.0260 c3        1 PTG     -0.074400
      5 C5          5.2810    0.5920    2.1020 c3        1 PTG     -0.061200
      6 C6          5.3180   -0.4540    3.1500 c2        1 PTG     -0.121200
      7 C7          6.3580   -0.7000    3.9540 ce        1 PTG     -0.167000
      8 C8          7.6600   -0.0630    3.9200 ce        1 PTG     -0.042000
      9 C10         7.9690    1.2030    4.2220 cf        1 PTG     -0.210400
     10 C11         7.0740    2.3090    4.6670 c         1 PTG      0.568500
     11 O12         5.8470    2.2960    4.7770 o         1 PTG     -0.537100
     12 C13         7.9590    3.4730    4.9550 ce        1 PTG     -0.273200
     13 C14         9.2440    3.1590    4.6990 c2        1 PTG     -0.088200
     14 C15         9.3910    1.7340    4.2180 c3        1 PTG     -0.016300
     15 C16        10.0440    1.6550    2.8460 c3        1 PTG     -0.023200
     16 C17        11.4890    1.9840    2.9070 c2        1 PTG     -0.231200
     17 C18        12.4530    1.1690    2.4680 c2        1 PTG     -0.115200
     18 C19        13.8960    1.5010    2.5040 c3        1 PTG     -0.062200
     19 C20        14.7360    0.3220    2.9610 c3        1 PTG     -0.062400
     20 C21        16.2080    0.6510    2.9530 c3        1 PTG     -0.197400
     21 C22        17.0350   -0.4880    3.5780 c         1 PTG      0.908600
     22 O23        16.6220   -1.0120    4.6530 o         1 PTG     -0.850800
     23 O24        18.1000   -0.8300    2.9900 o         1 PTG     -0.850800
     24 H1         -0.3060    0.3990    0.0450 hc        1 PTG      0.030367
     25 H1A         0.1590   -0.0000    1.7500 hc        1 PTG      0.030367
     26 H1B         0.3230    1.6960    1.1420 hc        1 PTG      0.030367
     27 H2          2.0690    0.9350   -0.5050 hc        1 PTG      0.036200
     28 H2A         1.9050   -0.7570    0.1020 hc        1 PTG      0.036200
     29 H3          2.7650    1.6910    1.7960 hc        1 PTG      0.043200
     30 H3A         2.6050   -0.0010    2.3990 hc        1 PTG      0.043200
     31 H4          4.4830    0.9550    0.1320 hc        1 PTG      0.037700
     32 H4A         4.3210   -0.7530    0.6970 hc        1 PTG      0.037700
     33 H5          5.0590    1.5780    2.6020 hc        1 PTG      0.062700
     34 H5A         6.2940    0.6870    1.6250 hc        1 PTG      0.062700
     35 H6          4.3940   -1.0470    3.2620 ha        1 PTG      0.119000
     36 H7          6.2840   -1.4960    4.7190 ha        1 PTG      0.130000
     37 H8          8.4810   -0.7560    3.6420 ha        1 PTG      0.134000
     38 H13         7.5510    4.4160    5.3190 ha        1 PTG      0.154000
     39 H14        10.1230    3.7980    4.8040 ha        1 PTG      0.150000
     40 H15        10.0140    1.1560    4.9550 hc        1 PTG      0.087700
     41 H16         9.5300    2.3670    2.1460 hc        1 PTG      0.044700
     42 H16A        9.8920    0.6190    2.4380 hc        1 PTG      0.044700
     43 H17        11.7280    2.9680    3.3410 ha        1 PTG      0.115000
     44 H18        12.2120    0.1780    2.0460 ha        1 PTG      0.117000
     45 H19        14.2170    1.8050    1.4690 hc        1 PTG      0.039200
     46 H19A       14.0860    2.3790    3.1770 hc        1 PTG      0.039200
     47 H20        14.4410    0.0160    3.9990 hc        1 PTG      0.047200
     48 H20A       14.5460   -0.5560    2.2900 hc        1 PTG      0.047200
     49 H21        16.3970    1.5790    3.5500 hc        1 PTG      0.019700
     50 H21A       16.5620    0.8360    1.9080 hc        1 PTG      0.019700
@<TRIPOS>BOND
     1    1    2 1   
     2    1   24 1   
     3    1   25 1   
     4    1   26 1   
     5    2    3 1   
     6    2   27 1   
     7    2   28 1   
     8    3    4 1   
     9    3   29 1   
    10    3   30 1   
    11    4    5 1   
    12    4   31 1   
    13    4   32 1   
    14    5    6 1   
    15    5   33 1   
    16    5   34 1   
    17    6    7 2   
    18    6   35 1   
    19    7    8 1   
    20    7   36 1   
    21    8    9 2   
    22    8   37 1   
    23    9   10 1   
    24    9   14 1   
    25   10   11 2   
    26   10   12 1   
    27   12   13 2   
    28   12   38 1   
    29   13   14 1   
    30   13   39 1   
    31   14   15 1   
    32   14   40 1   
    33   15   16 1   
    34   15   41 1   
    35   15   42 1   
    36   16   17 2   
    37   16   43 1   
    38   17   18 1   
    39   17   44 1   
    40   18   19 1   
    41   18   45 1   
    42   18   46 1   
    43   19   20 1   
    44   19   47 1   
    45   19   48 1   
    46   20   21 1   
    47   20   49 1   
    48   20   50 1   
    49   21   22 1   
    50   21   23 1   
@<TRIPOS>SUBSTRUCTURE
     1 PTG         1 TEMP              0 ****  ****    0 ROOT
