@<TRIPOS>MOLECULE
PTI
   64    68     1     0     0
SMALL
bcc


@<TRIPOS>ATOM
      1 C3          0.4440    0.5610   -0.1410 c3        1 PTI      0.176300
      2 C6          1.9670    0.5890   -0.0210 c3        1 PTI     -0.077900
      3 C9          2.4400   -0.2440    1.1500 c3        1 PTI     -0.078400
      4 N1         -0.2350    0.9240    1.0940 n3        1 PTI     -0.736600
      5 C12         1.7420    0.1880    2.4210 c3        1 PTI     -0.077900
      6 C15         0.2250    0.1630    2.2470 c3        1 PTI      0.176300
      7 C18        -1.6820    0.9200    0.9640 c3        1 PTI      0.172800
      8 C21        -2.3690    1.9820    1.8360 c3        1 PTI      0.128400
      9 O24        -2.4770    3.1470    1.0100 os        1 PTI     -0.326900
     10 C25        -2.9870    4.2740    1.6200 ca        1 PTI      0.131100
     11 C26        -2.9570    5.4390    0.8280 ca        1 PTI     -0.187000
     12 C28        -3.4650    6.6240    1.3430 ca        1 PTI     -0.079000
     13 C30        -3.9970    6.6710    2.6390 ca        1 PTI     -0.113300
     14 C31        -4.0240    5.5100    3.4130 ca        1 PTI     -0.079000
     15 C33        -3.5220    4.3090    2.9130 ca        1 PTI     -0.187000
     16 C35        -4.5210    7.9840    3.1810 c3        1 PTI      0.292100
     17 N37        -5.9080    7.8320    3.6590 nh        1 PTI     -0.622000
     18 C38        -6.2950    8.7900    4.6870 c3        1 PTI      0.177800
     19 C41        -5.3810    8.7340    5.9070 c3        1 PTI     -0.039100
     20 C44        -3.9570    8.8780    5.5090 ca        1 PTI     -0.034300
     21 C45        -3.5530    8.5120    4.2160 ca        1 PTI     -0.114300
     22 C46        -2.2100    8.6570    3.8470 ca        1 PTI     -0.079000
     23 C48        -1.2720    9.1530    4.7460 ca        1 PTI     -0.213000
     24 C50        -1.6870    9.5090    6.0380 ca        1 PTI      0.125100
     25 C51        -3.0280    9.3760    6.4240 ca        1 PTI     -0.160000
     26 O53        -0.8200   10.0050    6.9860 oh        1 PTI     -0.499100
     27 C55        -6.8570    7.8010    2.5780 ca        1 PTI      0.090600
     28 C56        -7.5760    6.6120    2.3490 ca        1 PTI     -0.128000
     29 C58        -8.5130    6.5460    1.3200 ca        1 PTI     -0.128500
     30 C60        -8.7510    7.6520    0.5060 ca        1 PTI     -0.131000
     31 C62        -8.0450    8.8350    0.7240 ca        1 PTI     -0.128500
     32 C64        -7.1060    8.9150    1.7480 ca        1 PTI     -0.128000
     33 H3C1        0.1320    1.3040   -0.9290 h1        1 PTI      0.027950
     34 H3C2        0.1330   -0.4670   -0.4960 h1        1 PTI      0.027950
     35 H6C1        2.4030    0.1970   -0.9760 hc        1 PTI      0.047700
     36 H6C2        2.3150    1.6470    0.1060 hc        1 PTI      0.047700
     37 H9C1        3.5490   -0.1370    1.2700 hc        1 PTI      0.039200
     38 H9C2        2.2270   -1.3280    0.9530 hc        1 PTI      0.039200
     39 H121        2.0130   -0.4970    3.2640 hc        1 PTI      0.047700
     40 H122        2.0730    1.2220    2.6990 hc        1 PTI      0.047700
     41 H151       -0.2540    0.6140    3.1620 h1        1 PTI      0.027950
     42 H152       -0.1080   -0.9170    2.1880 h1        1 PTI      0.027950
     43 H181       -2.1260   -0.0800    1.2460 h1        1 PTI      0.047200
     44 H182       -1.9610    1.1290   -0.1090 h1        1 PTI      0.047200
     45 H211       -1.7900    2.2240    2.7640 h1        1 PTI      0.043700
     46 H212       -3.4000    1.6340    2.1100 h1        1 PTI      0.043700
     47 H26        -2.5360    5.3910   -0.1850 ha        1 PTI      0.141000
     48 H28        -3.4480    7.5320    0.7220 ha        1 PTI      0.138000
     49 H31        -4.4480    5.5410    4.4290 ha        1 PTI      0.138000
     50 H33        -3.5540    3.4070    3.5390 ha        1 PTI      0.141000
     51 H35        -4.5000    8.7410    2.3290 h1        1 PTI      0.038700
     52 H381       -6.3070    9.8480    4.2920 h1        1 PTI      0.039200
     53 H382       -7.3450    8.5320    5.0050 h1        1 PTI      0.039200
     54 H411       -5.6790    9.5530    6.6130 hc        1 PTI      0.061200
     55 H412       -5.5140    7.7560    6.4450 hc        1 PTI      0.061200
     56 H46        -1.8950    8.3640    2.8330 ha        1 PTI      0.141000
     57 H48        -0.2200    9.2610    4.4500 ha        1 PTI      0.135000
     58 H51        -3.3330    9.6650    7.4400 ha        1 PTI      0.150000
     59 H53         0.0640   10.0330    6.5930 ho        1 PTI      0.419000
     60 H56        -7.3950    5.7280    2.9810 ha        1 PTI      0.138500
     61 H58        -9.0660    5.6110    1.1500 ha        1 PTI      0.131000
     62 H60        -9.4910    7.5930   -0.3050 ha        1 PTI      0.131000
     63 H62        -8.2290    9.7110    0.0850 ha        1 PTI      0.131000
     64 H64        -6.5580    9.8560    1.9080 ha        1 PTI      0.138500
@<TRIPOS>BOND
     1    1    2 1   
     2    1    4 1   
     3    1   33 1   
     4    1   34 1   
     5    2    3 1   
     6    2   35 1   
     7    2   36 1   
     8    3    5 1   
     9    3   37 1   
    10    3   38 1   
    11    4    6 1   
    12    4    7 1   
    13    5    6 1   
    14    5   39 1   
    15    5   40 1   
    16    6   41 1   
    17    6   42 1   
    18    7    8 1   
    19    7   43 1   
    20    7   44 1   
    21    8    9 1   
    22    8   45 1   
    23    8   46 1   
    24    9   10 1   
    25   10   11 ar  
    26   10   15 ar  
    27   11   12 ar  
    28   11   47 1   
    29   12   13 ar  
    30   12   48 1   
    31   13   14 ar  
    32   13   16 1   
    33   14   15 ar  
    34   14   49 1   
    35   15   50 1   
    36   16   17 1   
    37   16   21 1   
    38   16   51 1   
    39   17   18 1   
    40   17   27 1   
    41   18   19 1   
    42   18   52 1   
    43   18   53 1   
    44   19   20 1   
    45   19   54 1   
    46   19   55 1   
    47   20   21 ar  
    48   20   25 ar  
    49   21   22 ar  
    50   22   23 ar  
    51   22   56 1   
    52   23   24 ar  
    53   23   57 1   
    54   24   25 ar  
    55   24   26 1   
    56   25   58 1   
    57   26   59 1   
    58   27   28 ar  
    59   27   32 ar  
    60   28   29 ar  
    61   28   60 1   
    62   29   30 ar  
    63   29   61 1   
    64   30   31 ar  
    65   30   62 1   
    66   31   32 ar  
    67   31   63 1   
    68   32   64 1   
@<TRIPOS>SUBSTRUCTURE
     1 PTI         1 TEMP              0 ****  ****    0 ROOT
