@<TRIPOS>MOLECULE
molecule
   58    60     1     0     0
SMALL
bcc


@<TRIPOS>ATOM
      1 O15          0.0000     0.0000     0.0000 o          1 PTJ      -0.922167
      2 P1           1.4790     0.0000     0.0000 p5         1 PTJ       1.201900
      3 O16          2.0150     0.0000     1.5180 o          1 PTJ      -0.922167
      4 O17          2.0170    -1.3130    -0.7590 o          1 PTJ      -0.922167
      5 O14          2.0160     1.3150    -0.7590 os         1 PTJ      -0.583200
      6 C16          1.6280     1.6590    -2.0900 c3         1 PTJ       0.232400
      7 C13          2.3150     2.9610    -2.5020 c3         1 PTJ      -0.062000
      8 C14          1.9040     4.0810    -1.5460 c3         1 PTJ      -0.073600
      9 C15          3.8330     2.7750    -2.4460 c3         1 PTJ      -0.073600
     10 C12          1.8990     3.3290    -3.9280 c3         1 PTJ       0.102100
     11 O13          0.4820     3.5020    -3.9810 oh         1 PTJ      -0.570800
     12 C11          2.5790     4.6110    -4.3340 c          1 PTJ       0.664100
     13 O12          1.9200     5.6010    -4.5500 o          1 PTJ      -0.521000
     14 O11          3.9140     4.6540    -4.4560 os         1 PTJ      -0.546500
     15 P            4.5630     6.0610    -4.8940 p5         1 PTJ       1.338800
     16 O1P          4.3040     7.1550    -3.7410 o          1 PTJ      -0.809000
     17 O2P          3.9420     6.5200    -6.1570 o          1 PTJ      -0.809000
     18 O5'          6.1480     5.8770    -5.1120 os         1 PTJ      -0.585200
     19 C5'          6.9930     6.9190    -5.6040 c3         1 PTJ       0.236400
     20 C4'          8.4330     6.4100    -5.6900 c3         1 PTJ       0.119100
     21 O4'          8.5300     5.3830    -6.6910 os         1 PTJ      -0.382600
     22 C3'          9.3680     7.5570    -6.1180 c3         1 PTJ       0.081100
     23 O3'         10.3590     7.7960    -5.1160 oh         1 PTJ      -0.579800
     24 C2'         10.0300     7.0420    -7.4200 c3         1 PTJ       0.081100
     25 O2'         11.4180     7.3780    -7.4550 oh         1 PTJ      -0.569800
     26 C1'          9.8340     5.5090    -7.2990 c3         1 PTJ       0.257800
     27 N9           9.8480     4.8810    -8.6230 na         1 PTJ      -0.239000
     28 C8           8.7590     4.5880    -9.3880 cc         1 PTJ       0.460700
     29 N7           9.1370     4.0360   -10.5050 nd         1 PTJ      -0.614100
     30 C5          10.4880     3.9400   -10.5260 ca         1 PTJ      -0.205200
     31 C4          10.9610     4.4870    -9.3210 ca         1 PTJ       0.471800
     32 N3          12.2710     4.5180    -9.0960 nb         1 PTJ      -0.767000
     33 C2          13.1160     4.0470    -9.9890 ca         1 PTJ       0.715900
     34 N1          12.7190     3.5270   -11.1360 nb         1 PTJ      -0.853000
     35 C6          11.4290     3.4450   -11.4450 ca         1 PTJ       0.775200
     36 N6          11.0230     2.8990   -12.6500 nv         1 PTJ      -0.996500
     37 H3           1.9200     0.8650    -2.7670 h1         1 PTJ       0.011200
     38 H4           0.5530     1.7900    -2.1300 h1         1 PTJ       0.011200
     39 H5           2.3280     5.0190    -1.8840 hc         1 PTJ       0.036533
     40 H6           0.8240     4.1600    -1.5250 hc         1 PTJ       0.036533
     41 H7           2.2690     3.8590    -0.5500 hc         1 PTJ       0.036533
     42 H8           4.1770     2.3230    -3.3690 hc         1 PTJ       0.036533
     43 H9           4.3100     3.7390    -2.3170 hc         1 PTJ       0.036533
     44 H10          4.0880     2.1320    -1.6120 hc         1 PTJ       0.036533
     45 H11          2.1910     2.5360    -4.6050 h1         1 PTJ       0.039700
     46 H12          0.1590     3.1960    -4.8120 ho         1 PTJ       0.377000
     47 H14          6.9490     7.7670    -4.9320 h1         1 PTJ       0.035200
     48 H15          6.6570     7.2200    -6.5890 h1         1 PTJ       0.035200
     49 H16          8.7490     6.0180    -4.7310 h1         1 PTJ       0.092700
     50 H17          8.7970     8.4550    -6.3160 h1         1 PTJ       0.051700
     51 H18         10.3230     8.6980    -4.8470 ho         1 PTJ       0.397000
     52 H19          9.5120     7.4270    -8.2900 h1         1 PTJ       0.053700
     53 H20         11.5270     8.2180    -7.8700 ho         1 PTJ       0.391000
     54 H21         10.5940     5.0790    -6.6580 h2         1 PTJ       0.107700
     55 H22          7.7320     4.7850    -9.1080 h5         1 PTJ       0.111800
     56 H23         14.1770     4.0940    -9.7780 h5         1 PTJ       0.048100
     57 H24         10.0490     2.8490   -12.8740 hn         1 PTJ       0.442300
     58 H25         11.7030     2.5590   -13.3010 hn         1 PTJ       0.442300
@<TRIPOS>BOND
     1    25    24 1
     2    17    15 1
     3    24    22 1
     4    24    26 1
     5    28    29 2
     6    28    27 1
     7    29    30 1
     8     9     7 1
     9    22    23 1
    10    22    20 1
    11    27    26 1
    12    27    31 1
    13    13    12 2
    14    15    16 1
    15    15    18 1
    16    15    14 1
    17    36    35 1
    18    30    31 ar
    19    30    35 ar
    20    26    21 1
    21    12    14 1
    22    12    10 1
    23     8     7 1
    24    18    19 1
    25    31    32 ar
    26    19    20 1
    27    35    34 ar
    28     7    10 1
    29     7     6 1
    30    20    21 1
    31    10    11 1
    32     6     5 1
    33    32    33 ar
    34     5     2 1
    35    34    33 ar
    36     1     2 1
    37     4     2 1
    38     2     3 1
    39     6    37 1
    40     6    38 1
    41     8    39 1
    42     8    40 1
    43     8    41 1
    44     9    42 1
    45     9    43 1
    46     9    44 1
    47    10    45 1
    48    11    46 1
    49    19    47 1
    50    19    48 1
    51    20    49 1
    52    22    50 1
    53    23    51 1
    54    24    52 1
    55    25    53 1
    56    26    54 1
    57    28    55 1
    58    33    56 1
    59    36    57 1
    60    36    58 1
@<TRIPOS>SUBSTRUCTURE
     1 PTJ         1 TEMP              0 ****  ****    0 ROOT
