@<TRIPOS>MOLECULE
PTJ
   58    60     1     0     0
SMALL
bcc


@<TRIPOS>ATOM
      1 O15          0.0000     0.0000     0.0000 o          1 PTJ      -0.743167
      2 P1           1.4790     0.0000     0.0000 p5         1 PTJ       0.703900
      3 O16          2.0150     0.0000     1.5180 o          1 PTJ      -0.743167
      4 O17          2.0170    -1.3130    -0.7590 o          1 PTJ      -0.743167
      5 O14          2.0160     1.3150    -0.7590 os         1 PTJ      -0.477200
      6 C16          1.6280     1.6590    -2.0900 c3         1 PTJ       0.293400
      7 C13          2.3150     2.9610    -2.5020 c3         1 PTJ      -0.086000
      8 C14          1.9040     4.0810    -1.5460 c3         1 PTJ       0.000400
      9 C15          3.8330     2.7750    -2.4460 c3         1 PTJ       0.000400
     10 C12          1.8990     3.3290    -3.9280 c3         1 PTJ       0.134100
     11 O13          0.4820     3.5020    -3.9810 oh         1 PTJ      -0.556800
     12 C11          2.5790     4.6110    -4.3340 c          1 PTJ       0.738100
     13 O12          1.9200     5.6010    -4.5500 o          1 PTJ      -0.585000
     14 O11          3.9140     4.6540    -4.4560 os         1 PTJ      -0.450500
     15 P            4.5630     6.0610    -4.8940 p5         1 PTJ       0.922800
     16 O1P          4.3040     7.1550    -3.7410 o          1 PTJ      -0.655000
     17 O2P          3.9420     6.5200    -6.1570 o          1 PTJ      -0.655000
     18 O5'          6.1480     5.8770    -5.1120 os         1 PTJ      -0.494200
     19 C5'          6.9930     6.9190    -5.6040 c3         1 PTJ       0.313400
     20 C4'          8.4330     6.4100    -5.6900 c3         1 PTJ       0.141100
     21 O4'          8.5300     5.3830    -6.6910 os         1 PTJ      -0.365600
     22 C3'          9.3680     7.5570    -6.1180 c3         1 PTJ       0.122100
     23 O3'         10.3590     7.7960    -5.1160 oh         1 PTJ      -0.561800
     24 C2'         10.0300     7.0420    -7.4200 c3         1 PTJ       0.118100
     25 O2'         11.4180     7.3780    -7.4550 oh         1 PTJ      -0.549800
     26 C1'          9.8340     5.5090    -7.2990 c3         1 PTJ       0.143800
     27 N9           9.8480     4.8810    -8.6230 na         1 PTJ       0.224000
     28 C8           8.7590     4.5880    -9.3880 cc         1 PTJ       0.263700
     29 N7           9.1370     4.0360   -10.5050 nd         1 PTJ      -0.530100
     30 C5          10.4880     3.9400   -10.5260 ca         1 PTJ      -0.237200
     31 C4          10.9610     4.4870    -9.3210 ca         1 PTJ       0.264800
     32 N3          12.2710     4.5180    -9.0960 nb         1 PTJ      -0.662000
     33 C2          13.1160     4.0470    -9.9890 ca         1 PTJ       0.636900
     34 N1          12.7190     3.5270   -11.1360 nb         1 PTJ      -0.755000
     35 C6          11.4290     3.4450   -11.4450 ca         1 PTJ       0.559200
     36 N6          11.0230     2.8990   -12.6500 nv         1 PTJ      -0.512500
     37 H3           1.9200     0.8650    -2.7670 h1         1 PTJ      -0.029800
     38 H4           0.5530     1.7900    -2.1300 h1         1 PTJ      -0.029800
     39 H5           2.3280     5.0190    -1.8840 hc         1 PTJ       0.007033
     40 H6           0.8240     4.1600    -1.5250 hc         1 PTJ       0.007033
     41 H7           2.2690     3.8590    -0.5500 hc         1 PTJ       0.007033
     42 H8           4.1770     2.3230    -3.3690 hc         1 PTJ       0.007033
     43 H9           4.3100     3.7390    -2.3170 hc         1 PTJ       0.007033
     44 H10          4.0880     2.1320    -1.6120 hc         1 PTJ       0.007033
     45 H11          2.1910     2.5360    -4.6050 h1         1 PTJ      -0.001300
     46 H12          0.1590     3.1960    -4.8120 ho         1 PTJ       0.358000
     47 H14          6.9490     7.7670    -4.9320 h1         1 PTJ      -0.015300
     48 H15          6.6570     7.2200    -6.5890 h1         1 PTJ      -0.015300
     49 H16          8.7490     6.0180    -4.7310 h1         1 PTJ       0.049700
     50 H17          8.7970     8.4550    -6.3160 h1         1 PTJ       0.015700
     51 H18         10.3230     8.6980    -4.8470 ho         1 PTJ       0.379000
     52 H19          9.5120     7.4270    -8.2900 h1         1 PTJ       0.017700
     53 H20         11.5270     8.2180    -7.8700 ho         1 PTJ       0.374000
     54 H21         10.5940     5.0790    -6.6580 h2         1 PTJ       0.063700
     55 H22          7.7320     4.7850    -9.1080 h5         1 PTJ       0.059800
     56 H23         14.1770     4.0940    -9.7780 h5         1 PTJ      -0.018900
     57 H24         10.0490     2.8490   -12.8740 hn         1 PTJ       0.267300
     58 H25         11.7030     2.5590   -13.3010 hn         1 PTJ       0.267300
@<TRIPOS>BOND
     1     1     2 1   
     2     2     3 1   
     3     2     4 1   
     4     2     5 1   
     5     5     6 1   
     6     6     7 1   
     7     6    37 1   
     8     6    38 1   
     9     7     8 1   
    10     7     9 1   
    11     7    10 1   
    12     8    39 1   
    13     8    40 1   
    14     8    41 1   
    15     9    42 1   
    16     9    43 1   
    17     9    44 1   
    18    10    11 1   
    19    10    12 1   
    20    10    45 1   
    21    11    46 1   
    22    12    13 2   
    23    12    14 1   
    24    14    15 1   
    25    15    16 1   
    26    15    17 1   
    27    15    18 1   
    28    18    19 1   
    29    19    20 1   
    30    19    47 1   
    31    19    48 1   
    32    20    21 1   
    33    20    22 1   
    34    20    49 1   
    35    21    26 1   
    36    22    23 1   
    37    22    24 1   
    38    22    50 1   
    39    23    51 1   
    40    24    25 1   
    41    24    26 1   
    42    24    52 1   
    43    25    53 1   
    44    26    27 1   
    45    26    54 1   
    46    27    28 1   
    47    27    31 1   
    48    28    29 2   
    49    28    55 1   
    50    29    30 1   
    51    30    31 ar  
    52    30    35 ar  
    53    31    32 ar  
    54    32    33 ar  
    55    33    34 ar  
    56    33    56 1   
    57    34    35 ar  
    58    35    36 1   
    59    36    57 1   
    60    36    58 1   
@<TRIPOS>SUBSTRUCTURE
     1 PTJ         1 TEMP              0 ****  ****    0 ROOT
