@<TRIPOS>MOLECULE
PTK
   38    41     1     0     0
SMALL
bcc


@<TRIPOS>ATOM
      1 OAA         0.2160    0.0620    0.5530 o         1 PTK     -0.762867
      2 OAB         2.4810   -0.3480    1.0430 o         1 PTK     -0.762867
      3 OAC         5.4170    3.1980    1.0910 o         1 PTK     -0.762867
      4 OAD         4.5800    5.3520    0.6490 o         1 PTK     -0.762867
      5 OAE        -3.3550    3.1010   -4.6080 o         1 PTK     -0.762867
      6 OAF        -1.9950    1.9920   -6.1830 o         1 PTK     -0.762867
      7 OAG         2.3700    7.2820   -6.1120 o         1 PTK     -0.762867
      8 OAH         1.0180    8.3810   -4.5240 o         1 PTK     -0.762867
      9 OAI         1.5850   -1.0330   -1.0230 o         1 PTK     -0.762867
     10 OAJ         5.9400    4.2640   -0.9400 o         1 PTK     -0.762867
     11 OAK        -2.8200    4.1460   -6.6470 o         1 PTK     -0.762867
     12 OAL         0.1030    7.7040   -6.5820 o         1 PTK     -0.762867
     13 CAM         3.0900    2.1530   -0.1760 ca        1 PTK      0.012000
     14 CAN        -0.4990    5.1970   -5.3710 ca        1 PTK      0.012000
     15 CAO         0.0830    1.4900   -2.3020 ca        1 PTK     -0.126000
     16 CAP        -0.6110    2.0790   -3.3060 ca        1 PTK     -0.126000
     17 CAQ         3.2020    5.2710   -2.2420 ca        1 PTK     -0.126000
     18 CAR         2.5080    5.8600   -3.2460 ca        1 PTK     -0.126000
     19 CAS         1.9690    1.4880   -0.6790 ca        1 PTK     -0.314500
     20 CAT         3.5380    3.3890   -0.6480 ca        1 PTK     -0.314500
     21 CAU        -0.9470    3.9610   -4.8990 ca        1 PTK     -0.314500
     22 CAV         0.6220    5.8620   -4.8690 ca        1 PTK     -0.314500
     23 CAW         1.2530    2.1030   -1.7210 ca        1 PTK      0.075000
     24 CAX         2.8130    3.9950   -1.6910 ca        1 PTK      0.075000
     25 CAY        -0.2230    3.3550   -3.8570 ca        1 PTK      0.075000
     26 CAZ         1.3380    5.2470   -3.8260 ca        1 PTK      0.075000
     27 CBA         1.6650    3.3620   -2.2390 ca        1 PTK     -0.062000
     28 CBB         0.9260    3.9880   -3.3080 ca        1 PTK     -0.062000
     29 SBC         1.5320   -0.0570    0.0160 s6        1 PTK      1.447100
     30 SBD         4.9590    4.0990    0.0830 s6        1 PTK      1.447100
     31 SBE        -2.3700    3.2520   -5.6290 s6        1 PTK      1.447100
     32 SBF         1.0590    7.4060   -5.5640 s6        1 PTK      1.447100
     33 HAM         3.6590    1.6710    0.6470 ha        1 PTK      0.167000
     34 HAN        -1.0680    5.6790   -6.1940 ha        1 PTK      0.167000
     35 HAO        -0.2300    0.5130   -1.8920 ha        1 PTK      0.148000
     36 HAP        -1.5040    1.5940   -3.7380 ha        1 PTK      0.148000
     37 HAQ         4.0950    5.7550   -1.8090 ha        1 PTK      0.148000
     38 HAR         2.8200    6.8370   -3.6550 ha        1 PTK      0.148000
@<TRIPOS>BOND
     1    1   29 1   
     2    2   29 1   
     3    3   30 1   
     4    4   30 1   
     5    5   31 1   
     6    6   31 1   
     7    7   32 1   
     8    8   32 1   
     9    9   29 1   
    10   10   30 1   
    11   11   31 1   
    12   12   32 1   
    13   13   19 ar  
    14   13   20 ar  
    15   13   33 1   
    16   14   21 ar  
    17   14   22 ar  
    18   14   34 1   
    19   15   16 ar  
    20   15   23 ar  
    21   15   35 1   
    22   16   25 ar  
    23   16   36 1   
    24   17   18 ar  
    25   17   24 ar  
    26   17   37 1   
    27   18   26 ar  
    28   18   38 1   
    29   19   23 ar  
    30   19   29 1   
    31   20   24 ar  
    32   20   30 1   
    33   21   25 ar  
    34   21   31 1   
    35   22   26 ar  
    36   22   32 1   
    37   23   27 ar  
    38   24   27 ar  
    39   25   28 ar  
    40   26   28 ar  
    41   27   28 ar  
@<TRIPOS>SUBSTRUCTURE
     1 PTK         1 TEMP              0 ****  ****    0 ROOT
