@<TRIPOS>MOLECULE
molecule
   38    41     1     0     0
SMALL
bcc


@<TRIPOS>ATOM
      1 OAA          0.0000     0.0000     0.0000 o          1 PTK      -0.737700
      2 OAB          1.8500     0.0000     1.4600 o          1 PTK      -0.737700
      3 OAC          5.8320     3.0330     0.4980 o          1 PTK      -0.737700
      4 OAD          4.5000     4.8580     1.1730 o          1 PTK      -0.737700
      5 OAE         -3.0340     2.5630    -4.5300 o          1 PTK      -0.737700
      6 OAF         -1.8330     2.4410    -6.7190 o          1 PTK      -0.737700
      7 OAG          1.9820     7.0240    -6.6690 o          1 PTK      -0.737700
      8 OAH          1.6210     8.1570    -4.4700 o          1 PTK      -0.737700
      9 OAI          2.1990    -0.9970    -0.6470 o          1 PTK      -0.737700
     10 OAJ          5.6160     4.7860    -1.0630 o          1 PTK      -0.737700
     11 OAK         -3.1990     4.2740    -6.1430 o          1 PTK      -0.737700
     12 OAL         -0.0730     8.0280    -6.1030 o          1 PTK      -0.737700
     13 CAM          3.0450     2.1900    -0.1890 ca         1 PTK       0.050000
     14 CAN         -0.4450     5.1510    -5.3710 ca         1 PTK       0.050000
     15 CAO          0.0480     1.4860    -2.2510 ca         1 PTK      -0.142000
     16 CAP         -0.6620     2.0890    -3.2950 ca         1 PTK      -0.142000
     17 CAQ          3.2340     5.2770    -2.2310 ca         1 PTK      -0.142000
     18 CAR          2.5200     5.8830    -3.2710 ca         1 PTK      -0.142000
     19 CAS          1.9180     1.5440    -0.6880 ca         1 PTK      -0.288500
     20 CAT          3.4930     3.4130    -0.6810 ca         1 PTK      -0.288500
     21 CAU         -0.9050     3.9390    -4.8650 ca         1 PTK      -0.288500
     22 CAV          0.6590     5.8170    -4.8440 ca         1 PTK      -0.288500
     23 CAW          1.1790     2.1050    -1.7280 ca         1 PTK       0.050500
     24 CAX          2.8150     4.0540    -1.7160 ca         1 PTK       0.050500
     25 CAY         -0.2310     3.3020    -3.8250 ca         1 PTK       0.050500
     26 CAZ          1.4010     5.2530    -3.8100 ca         1 PTK       0.050500
     27 CBA          1.6220     3.3970    -2.2820 ca         1 PTK      -0.047500
     28 CBB          0.9620     3.9570    -3.2590 ca         1 PTK      -0.047500
     29 SBC          1.4210     0.0000     0.0000 s6         1 PTK       1.352600
     30 SBD          4.9310     4.1590     0.0130 s6         1 PTK       1.352600
     31 SBE         -2.3110     3.1670    -5.5940 s6         1 PTK       1.352600
     32 SBF          1.1700     7.3490    -5.5490 s6         1 PTK       1.352600
     33 HAM          3.5980     1.7220     0.6160 ha         1 PTK       0.152000
     34 HAN         -0.8890     5.5310    -6.2840 ha         1 PTK       0.152000
     35 HAO         -0.2750     0.5290    -1.8600 ha         1 PTK       0.163250
     36 HAP         -1.5430     1.6050    -3.6990 ha         1 PTK       0.163250
     37 HAQ          4.1090     5.7660    -1.8190 ha         1 PTK       0.163250
     38 HAR          2.8440     6.8380    -3.6640 ha         1 PTK       0.163250
@<TRIPOS>BOND
     1    29     1 1
     2    29     2 1
     3    30     3 1
     4     4    30 1
     5    31     5 1
     6     6    31 1
     7     7    32 1
     8     8    32 1
     9     9    29 1
    10    10    30 1
    11    31    11 1
    12    32    12 1
    13    20    13 ar
    14    13    19 ar
    15    13    33 1
    16    22    14 ar
    17    14    21 ar
    18    14    34 1
    19    23    15 ar
    20    16    15 ar
    21    15    35 1
    22    25    16 ar
    23    16    36 1
    24    18    17 ar
    25    17    24 ar
    26    17    37 1
    27    18    26 ar
    28    18    38 1
    29    23    19 ar
    30    19    29 1
    31    30    20 1
    32    24    20 ar
    33    21    25 ar
    34    21    31 1
    35    32    22 1
    36    22    26 ar
    37    27    23 ar
    38    24    27 ar
    39    28    25 ar
    40    26    28 ar
    41    28    27 ar
@<TRIPOS>SUBSTRUCTURE
     1 PTK         1 TEMP              0 ****  ****    0 ROOT
