@<TRIPOS>MOLECULE
molecule
   16    15     1     0     0
SMALL
bcc


@<TRIPOS>ATOM
      1 C1           0.0000     0.0000     0.0000 c          1 PTL       0.568900
      2 O1           1.2070     0.0000     0.0000 o          1 PTL      -0.522100
      3 C2          -0.7540     0.0000     1.3030 c3         1 PTL      -0.205400
      4 C3          -1.6330     1.2490     1.3840 c3         1 PTL      -0.074400
      5 C4          -2.4000     1.2490     2.7070 c3         1 PTL      -0.082400
      6 C5          -3.2800     2.4970     2.7880 c3         1 PTL      -0.092100
      7 H1          -0.5410    -0.0220    -0.9380 h4         1 PTL      -0.007800
      8 H21         -1.3770    -0.8840     1.3600 hc         1 PTL       0.066700
      9 H22         -0.0510    -0.0010     2.1270 hc         1 PTL       0.066700
     10 H31         -1.0100     2.1330     1.3280 hc         1 PTL       0.045200
     11 H32         -2.3360     1.2490     0.5600 hc         1 PTL       0.045200
     12 H41         -1.6980     1.2490     3.5320 hc         1 PTL       0.042700
     13 H42         -3.0230     0.3640     2.7640 hc         1 PTL       0.042700
     14 H51         -2.6570     3.3820     2.7310 hc         1 PTL       0.034700
     15 H52         -3.9830     2.4970     1.9630 hc         1 PTL       0.034700
     16 H53         -3.8230     2.4970     3.7250 hc         1 PTL       0.034700
@<TRIPOS>BOND
     1     1     2 2
     2     1     3 1
     3     1     7 1
     4     3     4 1
     5     3     8 1
     6     3     9 1
     7     4     5 1
     8     4    10 1
     9     4    11 1
    10     5     6 1
    11     5    12 1
    12     5    13 1
    13     6    14 1
    14     6    15 1
    15     6    16 1
@<TRIPOS>SUBSTRUCTURE
     1 PTL         1 TEMP              0 ****  ****    0 ROOT
