@<TRIPOS>MOLECULE
PTL
   16    15     1     0     0
SMALL
bcc


@<TRIPOS>ATOM
      1 C1          0.0410   -0.0020    0.0220 c         1 PTL      0.564900
      2 O1          1.1620   -0.4970   -0.1010 o         1 PTL     -0.528100
      3 C2         -0.6770    0.0730    1.3340 c3        1 PTL     -0.204400
      4 C3         -1.6440    1.2360    1.3780 c3        1 PTL     -0.076400
      5 C4         -2.3820    1.2820    2.6990 c3        1 PTL     -0.079400
      6 C5         -3.3450    2.4390    2.7520 c3        1 PTL     -0.094100
      7 H1         -0.5090    0.4120   -0.8530 h4        1 PTL     -0.006800
      8 H21         0.0650    0.1540    2.1720 hc        1 PTL      0.073700
      9 H22        -1.2330   -0.8930    1.4770 hc        1 PTL      0.073700
     10 H31        -1.0850    2.1970    1.2270 hc        1 PTL      0.043700
     11 H32        -2.3830    1.1470    0.5380 hc        1 PTL      0.043700
     12 H41        -1.6410    1.3690    3.5380 hc        1 PTL      0.041700
     13 H42        -2.9390    0.3200    2.8500 hc        1 PTL      0.041700
     14 H51        -4.1060    2.3570    1.9380 hc        1 PTL      0.035033
     15 H52        -2.8050    3.4090    2.6280 hc        1 PTL      0.035033
     16 H53        -3.8780    2.4550    3.7330 hc        1 PTL      0.035033
@<TRIPOS>BOND
     1    1    2 2   
     2    1    3 1   
     3    1    7 1   
     4    3    4 1   
     5    3    8 1   
     6    3    9 1   
     7    4    5 1   
     8    4   10 1   
     9    4   11 1   
    10    5    6 1   
    11    5   12 1   
    12    5   13 1   
    13    6   14 1   
    14    6   15 1   
    15    6   16 1   
@<TRIPOS>SUBSTRUCTURE
     1 PTL         1 TEMP              0 ****  ****    0 ROOT
