@<TRIPOS>MOLECULE
molecule
   25    26     1     0     0
SMALL
bcc


@<TRIPOS>ATOM
      1 C1           0.0000     0.0000     0.0000 c3         1 PTO       0.140000
      2 C2           1.5370     0.0000     0.0000 c3         1 PTO      -0.078900
      3 C3           2.0320     0.0000     1.4490 c3         1 PTO       0.142100
      4 C4           1.3720     1.1980     2.2220 c3         1 PTO      -0.078900
      5 C5          -0.1530     1.0930     2.0580 c3         1 PTO       0.140000
      6 C6          -0.5740    -0.3650     2.3520 c3         1 PTO      -0.116900
      7 C7          -0.4730    -1.0870     0.9920 c3         1 PTO      -0.116900
      8 N8          -0.4540     1.2770     0.6130 n3         1 PTO      -0.653600
      9 C9          -1.9180     1.3080     0.4890 c3         1 PTO       0.116100
     10 O3           3.4550     0.1380     1.4650 oh         1 PTO      -0.604800
     11 H1          -0.4110    -0.1460    -0.9920 h1         1 PTO       0.075700
     12 H21          1.9010     0.8850    -0.5080 hc         1 PTO       0.058450
     13 H22          1.9010    -0.8850    -0.5080 hc         1 PTO       0.058450
     14 H3           1.7550    -0.9330     1.9250 h1         1 PTO       0.030700
     15 H41          1.6320     1.1430     3.2720 hc         1 PTO       0.058450
     16 H42          1.7210     2.1370     1.8080 hc         1 PTO       0.058450
     17 H5          -0.6830     1.8050     2.6790 h1         1 PTO       0.075700
     18 H61         -1.5930    -0.3970     2.7200 hc         1 PTO       0.047700
     19 H62          0.1010    -0.8160     3.0690 hc         1 PTO       0.047700
     20 H71         -1.4420    -1.4720     0.6960 hc         1 PTO       0.047700
     21 H72          0.2520    -1.8910     1.0450 hc         1 PTO       0.047700
     22 H91         -2.2450     0.4810    -0.1310 h1         1 PTO       0.036033
     23 H92         -2.2220     2.2420     0.0330 h1         1 PTO       0.036033
     24 H93         -2.3660     1.2220     1.4710 h1         1 PTO       0.036033
     25 HO3          3.8370    -0.5950     1.9190 ho         1 PTO       0.398000
@<TRIPOS>BOND
     1     1     2 1
     2     1     7 1
     3     1     8 1
     4     1    11 1
     5     2     3 1
     6     2    12 1
     7     2    13 1
     8     3     4 1
     9     3    10 1
    10     3    14 1
    11     4     5 1
    12     4    15 1
    13     4    16 1
    14     5     6 1
    15     5     8 1
    16     5    17 1
    17     6     7 1
    18     6    18 1
    19     6    19 1
    20     7    20 1
    21     7    21 1
    22     8     9 1
    23     9    22 1
    24     9    23 1
    25     9    24 1
    26    10    25 1
@<TRIPOS>SUBSTRUCTURE
     1 PTO         1 TEMP              0 ****  ****    0 ROOT
