@<TRIPOS>MOLECULE
PTP
   37    38     1     0     0
SMALL
bcc


@<TRIPOS>ATOM
      1 N1           0.0000     0.0000     0.0000 n          1 PTP       0.099000
      2 C2           1.3450     0.0000     0.0000 c          1 PTP       0.545500
      3 O2           1.9440    -0.0010    -1.0570 o          1 PTP      -0.549500
      4 N3           2.0360     0.0000     1.1550 ns         1 PTP      -0.144500
      5 C4           1.3860     0.0050     2.3370 c          1 PTP       0.646700
      6 O4           2.0120     0.0050     3.3820 o          1 PTP      -0.789500
      7 C5          -0.0280     0.0000     2.3510 cc         1 PTP      -0.422400
      8 C5M         -0.7790     0.0010     3.6570 c3         1 PTP       0.137100
      9 C6          -0.6970     0.0000     1.1780 cd         1 PTP      -0.079400
     10 C1'         -0.7250    -0.0010    -1.2720 c3         1 PTP       0.191500
     11 C2'         -0.3490     1.2500    -2.0890 c3         1 PTP      -0.109400
     12 C3'          0.2220     0.6820    -3.4110 c3         1 PTP       0.211100
     13 O3'         -0.2300     1.4450    -4.5310 os         1 PTP      -0.446200
     14 P3'          1.0840     2.0010    -5.2770 p5         1 PTP       0.665900
     15 O13          1.9180     0.8620    -5.7200 o          1 PTP      -0.764167
     16 O23          0.6460     2.8750    -6.5560 o          1 PTP      -0.764167
     17 O33          1.9270     2.9220    -4.2610 o          1 PTP      -0.764167
     18 C4'         -0.3780    -0.7460    -3.4360 c3         1 PTP       0.136100
     19 O4'         -0.3510    -1.1500    -2.0490 os         1 PTP      -0.392600
     20 C5'          0.4850    -1.6770    -4.2890 c3         1 PTP       0.219400
     21 O5'         -0.0880    -2.9860    -4.2950 os         1 PTP      -0.489200
     22 P5'          0.8650    -3.9090    -5.2060 p5         1 PTP       0.699900
     23 O15          2.2260    -3.9350    -4.6250 o          1 PTP      -0.759833
     24 O25          0.2760    -5.4060    -5.2570 o          1 PTP      -0.759833
     25 O35          0.9300    -3.3060    -6.6980 o          1 PTP      -0.759833
     26 HN3          3.0370    -0.0000     1.1370 hn         1 PTP       0.188500
     27 H5M1        -1.8400    -0.1020     3.4640 hc         1 PTP      -0.021633
     28 H5M2        -0.5950     0.9330     4.1790 hc         1 PTP      -0.021633
     29 H5M3        -0.4410    -0.8270     4.2680 hc         1 PTP      -0.021633
     30 H6          -1.7800    -0.0020     1.1700 h4         1 PTP       0.111000
     31 H1'         -1.7930    -0.0130    -1.0930 h2         1 PTP      -0.014300
     32 H2'1         0.4060     1.8280    -1.5690 hc         1 PTP       0.013700
     33 H2'2        -1.2280     1.8520    -2.2850 hc         1 PTP       0.013700
     34 H3'          1.3040     0.6430    -3.3750 h1         1 PTP       0.094700
     35 H4'         -1.3970    -0.7210    -3.8020 h1         1 PTP      -0.007300
     36 H5'1         1.4850    -1.7230    -3.8750 h1         1 PTP       0.054700
     37 H5'2         0.5310    -1.2990    -5.3030 h1         1 PTP       0.054700
@<TRIPOS>BOND
     1     1     2 1   
     2     1     9 1   
     3     1    10 1   
     4     2     3 2   
     5     2     4 1   
     6     4     5 1   
     7     4    26 1   
     8     5     6 2   
     9     5     7 1   
    10     7     8 1   
    11     7     9 2   
    12     8    27 1   
    13     8    28 1   
    14     8    29 1   
    15     9    30 1   
    16    10    11 1   
    17    10    19 1   
    18    10    31 1   
    19    11    12 1   
    20    11    32 1   
    21    11    33 1   
    22    12    13 1   
    23    12    18 1   
    24    12    34 1   
    25    13    14 1   
    26    14    15 1   
    27    14    16 1   
    28    14    17 1   
    29    18    19 1   
    30    18    20 1   
    31    18    35 1   
    32    20    21 1   
    33    20    36 1   
    34    20    37 1   
    35    21    22 1   
    36    22    23 1   
    37    22    24 1   
    38    22    25 1   
@<TRIPOS>SUBSTRUCTURE
     1 PTP         1 TEMP              0 ****  ****    0 ROOT
