@<TRIPOS>MOLECULE
PTS
   31    32     1     0     0
SMALL
bcc


@<TRIPOS>ATOM
      1 S1           0.0000     0.0000     0.0000 ss         1 PTS       0.068200
      2 C2           1.7870     0.0000     0.0000 cc         1 PTS      -0.117600
      3 C3           2.0640     0.0000     1.3230 cd         1 PTS      -0.017000
      4 C4           1.0270    -0.0050     2.2630 cd         1 PTS      -0.188300
      5 C5           1.2940    -0.0170     3.7610 c3         1 PTS       0.002800
      6 C6           0.1220     0.5420     4.5500 c3         1 PTS      -0.016400
      7 C7          -1.1340    -0.3150     4.3430 c3         1 PTS       0.001100
      8 S8          -1.7390     0.0140     2.6540 sy         1 PTS       0.896300
      9 C9          -0.2320     0.0010     1.7540 cc         1 PTS       0.138400
     10 S10          2.8980     0.0030    -1.3680 sy         1 PTS       1.005200
     11 O11          2.1610     0.5300    -2.4620 o          1 PTS      -0.469300
     12 O12          4.1200     0.5280    -0.8710 o          1 PTS      -0.469300
     13 N13          3.2110    -1.5750    -1.7540 nz         1 PTS      -0.121500
     14 N14          2.4890     0.7910     4.0390 nz         1 PTS       0.071400
     15 C15         -0.7840    -1.7960     4.4910 c3         1 PTS       0.030900
     16 O16         -2.4470    -1.0940     2.1180 o          1 PTS      -0.504300
     17 O17         -2.1940     1.3520     2.5040 o          1 PTS      -0.504300
     18 H3           3.0940     0.0000     1.6570 ha         1 PTS       0.106000
     19 H5           1.4720    -1.0380     4.0760 hx         1 PTS       0.108700
     20 H61         -0.0790     1.5530     4.2170 hc         1 PTS       0.056700
     21 H62          0.3760     0.5520     5.6030 hc         1 PTS       0.056700
     22 H7          -1.8920    -0.0350     5.0650 h1         1 PTS       0.122700
     23 HN31         3.6270    -2.0350    -0.9690 hn         1 PTS       0.321467
     24 HN32         2.3550    -2.0360    -1.9940 hn         1 PTS       0.321467
     25 HN41         2.5240     1.0090     5.0150 hn         1 PTS       0.234467
     26 HN42         2.4490     1.6390     3.5090 hn         1 PTS       0.234467
     27 H151        -1.6870    -2.3630     4.6860 hc         1 PTS       0.025367
     28 H152        -0.3250    -2.1520     3.5770 hc         1 PTS       0.025367
     29 H153        -0.0930    -1.9230     5.3160 hc         1 PTS       0.025367
     30 H133         3.8290    -1.6100    -2.5400 hn         1 PTS       0.321467
     31 H143         3.3070     0.2750     3.7810 hn         1 PTS       0.234467
@<TRIPOS>BOND
     1     1     2 1   
     2     1     9 1   
     3     2     3 2   
     4     2    10 1   
     5     3     4 1   
     6     3    18 1   
     7     4     5 1   
     8     4     9 2   
     9     5     6 1   
    10     5    14 1   
    11     5    19 1   
    12     6     7 1   
    13     6    20 1   
    14     6    21 1   
    15     7     8 1   
    16     7    15 1   
    17     7    22 1   
    18     8     9 1   
    19     8    16 2   
    20     8    17 2   
    21    10    11 2   
    22    10    12 2   
    23    10    13 1   
    24    13    23 1   
    25    13    24 1   
    26    13    30 1   
    27    14    25 1   
    28    14    26 1   
    29    14    31 1   
    30    15    27 1   
    31    15    28 1   
    32    15    29 1   
@<TRIPOS>SUBSTRUCTURE
     1 PTS         1 TEMP              0 ****  ****    0 ROOT
