@<TRIPOS>MOLECULE
PTU
   25    25     1     0     0
SMALL
bcc


@<TRIPOS>ATOM
      1 N1           0.0000     0.0000     0.0000 nz         1 PTU       0.166400
      2 C            1.3740     0.0000     0.0000 c2         1 PTU       0.133100
      3 S            2.2540     0.0000     1.5260 ss         1 PTU      -0.224300
      4 N2           2.0300    -0.0010    -1.1370 ne         1 PTU      -0.290100
      5 C1           1.3520    -0.1290    -2.3190 ca         1 PTU      -0.045600
      6 C2           1.4840     0.8410    -3.3130 ca         1 PTU      -0.095000
      7 C3           0.7990     0.7040    -4.5020 ca         1 PTU      -0.068000
      8 C4          -0.0200    -0.3910    -4.7110 ca         1 PTU      -0.045000
      9 C5          -0.1550    -1.3570    -3.7300 ca         1 PTU      -0.068000
     10 C6           0.5290    -1.2360    -2.5380 ca         1 PTU      -0.095000
     11 C1'          3.9540    -0.0000     0.9080 c3         1 PTU       0.120700
     12 C2'          4.9270     0.0000     2.0890 c3         1 PTU       0.020900
     13 HN11        -0.3340     0.5820    -0.7420 hn         1 PTU       0.224800
     14 HN12        -0.3340     0.3520     0.8760 hn         1 PTU       0.224800
     15 H21          2.1250     1.7000    -3.1520 ha         1 PTU       0.118000
     16 H31          0.9010     1.4570    -5.2740 ha         1 PTU       0.129000
     17 H41         -0.5570    -0.4920    -5.6460 ha         1 PTU       0.127000
     18 H51         -0.7950    -2.2140    -3.9000 ha         1 PTU       0.129000
     19 H61          0.4220    -1.9930    -1.7710 ha         1 PTU       0.118000
     20 H1'1         4.1190    -0.8850     0.3050 h1         1 PTU       0.056700
     21 H1'2         4.1190     0.8840     0.3050 h1         1 PTU       0.056700
     22 H2'1         4.7620    -0.8840     2.6930 hc         1 PTU       0.027700
     23 H2'2         5.9450    -0.0010     1.7180 hc         1 PTU       0.027700
     24 H2'3         4.7630     0.8850     2.6920 hc         1 PTU       0.027700
     25 H13         -0.3340    -0.9370    -0.1110 hn         1 PTU       0.224800
@<TRIPOS>BOND
     1     1     2 1   
     2     1    13 1   
     3     1    14 1   
     4     1    25 1   
     5     2     3 1   
     6     2     4 2   
     7     3    11 1   
     8     4     5 1   
     9     5     6 ar  
    10     5    10 ar  
    11     6     7 ar  
    12     6    15 1   
    13     7     8 ar  
    14     7    16 1   
    15     8     9 ar  
    16     8    17 1   
    17     9    10 ar  
    18     9    18 1   
    19    10    19 1   
    20    11    12 1   
    21    11    20 1   
    22    11    21 1   
    23    12    22 1   
    24    12    23 1   
    25    12    24 1   
@<TRIPOS>SUBSTRUCTURE
     1 PTU         1 TEMP              0 ****  ****    0 ROOT
