@<TRIPOS>MOLECULE
PTV
   30    32     1     0     0
SMALL
bcc


@<TRIPOS>ATOM
      1 C3          0.0360    0.3510    0.9730 cc        1 PTV     -0.064000
      2 C2          0.0170    1.7740    1.0130 cc        1 PTV     -0.185000
      3 C1         -1.0120    2.2460    1.8070 cd        1 PTV     -0.179100
      4 S20        -1.8960    1.0150    2.4800 ss        1 PTV      0.111200
      5 C15        -0.9840   -0.1990    1.7400 cd        1 PTV     -0.247700
      6 C14        -1.2430   -1.6230    1.8540 c         1 PTV      0.626700
      7 O16        -0.5220   -2.4880    1.3420 o         1 PTV     -0.526100
      8 C4         -2.4630   -2.0400    2.6370 c3        1 PTV     -0.179300
      9 S11        -3.5590   -0.6710    2.8460 ss        1 PTV     -0.114400
     10 C19        -4.2360   -0.8880    4.3860 cc        1 PTV      0.553300
     11 N13        -4.8990    0.1700    5.0420 nc        1 PTV     -0.642000
     12 N18        -4.2700   -2.0510    5.1200 nd        1 PTV     -0.512800
     13 N17        -4.9330   -1.7410    6.2280 na        1 PTV     -0.137400
     14 C10        -5.3390   -0.3870    6.2030 cd        1 PTV      0.470000
     15 C9         -6.1010    0.2600    7.2660 ca        1 PTV     -0.097500
     16 C5         -6.9060    1.3690    6.9730 ca        1 PTV     -0.219300
     17 C6         -7.6250    1.9650    8.0260 ca        1 PTV      0.395700
     18 N12        -7.5850    1.5300    9.3000 nb        1 PTV     -0.648000
     19 C7         -6.8020    0.4650    9.5630 ca        1 PTV      0.395700
     20 C8         -6.0410   -0.2030    8.5880 ca        1 PTV     -0.219300
     21 H1          0.7570   -0.2400    0.4010 ha        1 PTV      0.166000
     22 H2          0.7350    2.3960    0.4740 ha        1 PTV      0.151000
     23 H3         -1.2200    3.3020    1.9800 h4        1 PTV      0.167000
     24 H4         -2.1170   -2.4670    3.6130 h1        1 PTV      0.115200
     25 H5         -2.9860   -2.8630    2.0870 h1        1 PTV      0.115200
     26 H7         -6.9750    1.7700    5.9520 ha        1 PTV      0.155000
     27 H8         -8.2710    2.8420    7.8380 h4        1 PTV      0.030600
     28 H9         -6.7820    0.1320   10.6170 h4        1 PTV      0.030600
     29 H10        -5.4110   -1.0540    8.8780 ha        1 PTV      0.155000
     30 H6         -5.1120   -2.4220    6.9290 hn        1 PTV      0.333700
@<TRIPOS>BOND
     1    1    2 1   
     2    1    5 2   
     3    1   21 1   
     4    2    3 2   
     5    2   22 1   
     6    3    4 1   
     7    3   23 1   
     8    4    5 1   
     9    5    6 1   
    10    6    7 2   
    11    6    8 1   
    12    8    9 1   
    13    8   24 1   
    14    8   25 1   
    15    9   10 1   
    16   10   11 1   
    17   10   12 2   
    18   11   14 2   
    19   12   13 1   
    20   13   14 1   
    21   13   30 1   
    22   14   15 1   
    23   15   16 ar  
    24   15   20 ar  
    25   16   17 ar  
    26   16   26 1   
    27   17   18 ar  
    28   17   27 1   
    29   18   19 ar  
    30   19   20 ar  
    31   19   28 1   
    32   20   29 1   
@<TRIPOS>SUBSTRUCTURE
     1 PTV         1 TEMP              0 ****  ****    0 ROOT
