@<TRIPOS>MOLECULE
molecule
   30    32     1     0     0
SMALL
bcc


@<TRIPOS>ATOM
      1 C3           0.0000     0.0000     0.0000 cc         1 PTV      -0.060000
      2 C2           1.3720     0.0000     0.0000 cc         1 PTV      -0.180000
      3 C1           1.9410     0.0000     1.2130 cd         1 PTV      -0.081100
      4 S20          0.7590    -0.0010     2.4430 ss         1 PTV      -0.062800
      5 C15         -0.5420    -0.0000     1.2600 cd         1 PTV      -0.160700
      6 C14         -1.9220     0.0050     1.5590 c          1 PTV       0.625700
      7 O16         -2.7380     0.0100     0.6600 o          1 PTV      -0.512100
      8 C4          -2.3810     0.0040     2.9940 c3         1 PTV      -0.135300
      9 S11         -4.1950     0.0100     3.0480 ss         1 PTV      -0.163400
     10 C19         -4.5400     0.0090     4.7760 cd         1 PTV       0.671300
     11 N13         -5.7570     0.0130     5.3230 nd         1 PTV      -0.724000
     12 N18         -3.6410    -0.0030     5.7340 nc         1 PTV      -0.564800
     13 N17         -4.3400    -0.0000     6.9520 na         1 PTV      -0.164400
     14 C10         -5.6540     0.0090     6.6360 cc         1 PTV       0.514000
     15 C9          -6.7800     0.0160     7.5970 ca         1 PTV      -0.096500
     16 C5          -8.1060     0.0250     7.1520 ca         1 PTV      -0.226300
     17 C6          -9.1250     0.0300     8.0820 ca         1 PTV       0.421700
     18 N12         -8.8610     0.0260     9.3750 nb         1 PTV      -0.680000
     19 C7          -7.6260     0.0170     9.8380 ca         1 PTV       0.421700
     20 C8          -6.5470     0.0060     8.9760 ca         1 PTV      -0.226300
     21 H1          -0.5960     0.0000    -0.9050 ha         1 PTV       0.172000
     22 H2           1.9530     0.0000    -0.9140 ha         1 PTV       0.155000
     23 H3           3.0100    -0.0000     1.3890 h4         1 PTV       0.175000
     24 H4          -2.0020     0.8860     3.4950 h1         1 PTV       0.094700
     25 H5          -2.0080    -0.8830     3.4930 h1         1 PTV       0.094700
     26 H7          -8.3290     0.0290     6.0920 ha         1 PTV       0.149500
     27 H8         -10.1550     0.0380     7.7470 h4         1 PTV       0.030100
     28 H9          -7.4560     0.0120    10.9080 h4         1 PTV       0.030100
     29 H10         -5.5350    -0.0020     9.3630 ha         1 PTV       0.149500
     30 H6          -3.9440    -0.0060     7.8710 hn         1 PTV       0.332700
@<TRIPOS>BOND
     1     2     3 2
     2     2     1 1
     3     3     4 1
     4     1     5 2
     5     4     5 1
     6     5     6 1
     7    13    12 1
     8    13    14 1
     9    12    10 2
    10     6     8 1
    11     6     7 2
    12    20    19 ar
    13    20    15 ar
    14     8     9 1
    15    19    18 ar
    16    14    15 1
    17    14    11 2
    18    10     9 1
    19    10    11 1
    20    15    16 ar
    21    18    17 ar
    22    16    17 ar
    23     1    21 1
    24     2    22 1
    25     3    23 1
    26     8    24 1
    27     8    25 1
    28    16    26 1
    29    17    27 1
    30    19    28 1
    31    20    29 1
    32    13    30 1
@<TRIPOS>SUBSTRUCTURE
     1 PTV         1 TEMP              0 ****  ****    0 ROOT
