@<TRIPOS>MOLECULE
PTW
   22    24     1     0     0
SMALL
bcc


@<TRIPOS>ATOM
      1 N1           0.0000     0.0000     0.0000 n3         1 PTW      -0.581267
      2 P1           2.0370     0.0000     1.7410 p3         1 PTW      -0.457700
      3 N2          -0.3340     1.2070     2.0640 n3         1 PTW      -0.581267
      4 N3          -0.3340    -1.2060     2.0640 n3         1 PTW      -0.581267
      5 C16          1.4710     0.0000     0.0000 c3         1 PTW       0.220700
      6 C17         -0.5420    -1.2130     0.6140 c3         1 PTW       0.329000
      7 C18          1.0810    -1.4100     2.4090 c3         1 PTW       0.220700
      8 C19         -0.5420     1.2140     0.6140 c3         1 PTW       0.329000
      9 C20          1.0820     1.4110     2.4080 c3         1 PTW       0.220700
     10 C21         -0.8800     0.0010     2.6890 c3         1 PTW       0.329000
     11 H16          1.8380    -0.8860    -0.5040 h1         1 PTW       0.051867
     12 H16A         1.8380     0.8860    -0.5040 h1         1 PTW       0.051867
     13 H17         -0.0490    -2.0780     0.1880 h2         1 PTW       0.040200
     14 H17A        -1.6040    -1.2710     0.4070 h2         1 PTW       0.040200
     15 H18          1.1930    -1.4510     3.4860 h1         1 PTW       0.051867
     16 H18A         1.4360    -2.3340     1.9690 h1         1 PTW       0.051867
     17 H19         -1.6040     1.2740     0.4070 h2         1 PTW       0.040200
     18 H19A        -0.0480     2.0790     0.1880 h2         1 PTW       0.040200
     19 H20          1.4360     2.3340     1.9670 h1         1 PTW       0.051867
     20 H20A         1.1940     1.4530     3.4850 h1         1 PTW       0.051867
     21 H21         -0.6280     0.0010     3.7430 h2         1 PTW       0.040200
     22 H21A        -1.9580     0.0010     2.5820 h2         1 PTW       0.040200
@<TRIPOS>BOND
     1     1     5 1   
     2     1     6 1   
     3     1     8 1   
     4     2     5 1   
     5     2     7 1   
     6     2     9 1   
     7     3     8 1   
     8     3     9 1   
     9     3    10 1   
    10     4     6 1   
    11     4     7 1   
    12     4    10 1   
    13     5    11 1   
    14     5    12 1   
    15     6    13 1   
    16     6    14 1   
    17     7    15 1   
    18     7    16 1   
    19     8    17 1   
    20     8    18 1   
    21     9    19 1   
    22     9    20 1   
    23    10    21 1   
    24    10    22 1   
@<TRIPOS>SUBSTRUCTURE
     1 PTW         1 TEMP              0 ****  ****    0 ROOT
