@<TRIPOS>MOLECULE
PTX
   27    27     1     0     0
SMALL
bcc


@<TRIPOS>ATOM
      1 P8           0.0000     0.0000     0.0000 p5         1 PTX       0.419700
      2 O81          1.6100     0.0000     0.0000 o          1 PTX      -0.729833
      3 O82         -0.5370     0.0000     1.5170 o          1 PTX      -0.729833
      4 C7          -0.6070     1.4900    -0.8590 c3         1 PTX      -0.000200
      5 N10         -0.2190     1.4310    -2.2710 ns         1 PTX      -0.044900
      6 C11         -1.0800     0.9440    -3.1860 c          1 PTX       0.399800
      7 O12         -2.1390     0.4660    -2.8310 o          1 PTX      -0.664100
      8 C13         -0.7350     0.9930    -4.6270 ce         1 PTX       0.296300
      9 N16         -1.6080     0.6200    -5.5190 n2         1 PTX      -0.458200
     10 O17         -2.9230     0.2750    -5.1220 os         1 PTX      -0.111300
     11 C18         -3.7730    -0.1150    -6.2020 c3         1 PTX       0.249700
     12 C14          0.6010     1.4640    -5.0520 cc         1 PTX       0.382000
     13 C15          1.0040     1.4290    -6.3370 cd         1 PTX      -0.160400
     14 S16          2.6410     2.0760    -6.4210 ss         1 PTX      -0.463300
     15 C17          2.6290     2.3390    -4.6800 cd         1 PTX       0.577300
     16 N18          3.6750     2.8740    -3.9460 nv         1 PTX      -0.488500
     17 N19          1.4900     1.9620    -4.1910 nc         1 PTX      -0.590000
     18 O1          -0.4930    -1.2080    -0.6990 o          1 PTX      -0.729833
     19 H71         -0.1750     2.3710    -0.4020 h1         1 PTX       0.013200
     20 H72         -1.6870     1.5350    -0.7830 h1         1 PTX       0.013200
     21 H10          0.6980     1.7180    -2.5500 hn         1 PTX       0.181500
     22 H181        -3.8640     0.7050    -6.9040 h1         1 PTX      -0.024633
     23 H182        -3.3470    -0.9750    -6.7040 h1         1 PTX      -0.024633
     24 H183        -4.7530    -0.3710    -5.8160 h1         1 PTX      -0.024633
     25 H15          0.4210     1.0650    -7.1750 h4         1 PTX       0.167000
     26 H11          3.5370     3.1260    -2.9880 hn         1 PTX       0.272300
     27 H12          4.5750     2.9920    -4.3700 hn         1 PTX       0.272300
@<TRIPOS>BOND
     1     1     2 1   
     2     1     3 1   
     3     1     4 1   
     4     1    18 1   
     5     4     5 1   
     6     4    19 1   
     7     4    20 1   
     8     5     6 1   
     9     5    21 1   
    10     6     7 2   
    11     6     8 1   
    12     8     9 2   
    13     8    12 1   
    14     9    10 1   
    15    10    11 1   
    16    11    22 1   
    17    11    23 1   
    18    11    24 1   
    19    12    13 2   
    20    12    17 1   
    21    13    14 1   
    22    13    25 1   
    23    14    15 1   
    24    15    16 1   
    25    15    17 2   
    26    16    26 1   
    27    16    27 1   
@<TRIPOS>SUBSTRUCTURE
     1 PTX         1 TEMP              0 ****  ****    0 ROOT
