@<TRIPOS>MOLECULE
PTY
  129   128     1     0     0
SMALL
bcc


@<TRIPOS>ATOM
      1 C1          0.0180   -0.1390    0.2160 c3        1 PTY      0.149400
      2 C2          1.1400   -5.2720    2.1470 c3        1 PTY      0.134800
      3 C3          1.7190   -4.4970    0.9550 c3        1 PTY      0.131400
      4 O4         -0.8350    1.0220    0.1200 os        1 PTY     -0.446900
      5 C5          2.2820   -0.6230   -0.8110 c3        1 PTY      0.178400
      6 C6          1.4380    0.3760    0.0020 c3        1 PTY      0.122100
      7 O7          1.9900    0.5370    1.3200 os        1 PTY     -0.439900
      8 C8          3.1770    1.2180    1.4230 c         1 PTY      0.673100
      9 O10         3.4620    2.0350    0.5410 o         1 PTY     -0.583000
     10 C11         3.9460    0.8330    2.6420 c3        1 PTY     -0.155400
     11 C12         4.9120    1.9160    3.0650 c3        1 PTY     -0.070400
     12 C13         5.8100    1.4250    4.1800 c3        1 PTY     -0.079400
     13 C14         6.7800    2.5020    4.6170 c3        1 PTY     -0.077400
     14 C15         7.6820    2.0110    5.7290 c3        1 PTY     -0.079400
     15 C16         8.6530    3.0860    6.1660 c3        1 PTY     -0.078400
     16 C17         9.5550    2.5950    7.2780 c3        1 PTY     -0.079400
     17 C18        10.5260    3.6700    7.7150 c3        1 PTY     -0.078400
     18 C19        11.4270    3.1790    8.8280 c3        1 PTY     -0.079400
     19 C20        12.3990    4.2540    9.2650 c3        1 PTY     -0.078400
     20 C21        13.2990    3.7630   10.3770 c3        1 PTY     -0.079400
     21 C22        14.2700    4.8380   10.8150 c3        1 PTY     -0.078400
     22 C23        15.1710    4.3460   11.9280 c3        1 PTY     -0.079400
     23 C24        16.1420    5.4220   12.3650 c3        1 PTY     -0.078400
     24 C25        17.0420    4.9300   13.4780 c3        1 PTY     -0.079400
     25 C26        18.0130    6.0060   13.9160 c3        1 PTY     -0.079400
     26 C27        18.9130    5.5140   15.0290 c3        1 PTY     -0.079400
     27 C28        19.8850    6.5890   15.4670 c3        1 PTY     -0.080400
     28 C29        20.7830    6.1040   16.5760 c3        1 PTY     -0.092100
     29 C30        -2.1560    0.8490    0.3910 c         1 PTY      0.630100
     30 C31        -2.9390    2.1220    0.2620 c3        1 PTY     -0.130400
     31 O30        -2.5750   -0.2750    0.6820 o         1 PTY     -0.552000
     32 C32        -4.0380    2.1910    1.3000 c3        1 PTY     -0.079400
     33 C33        -4.9130    3.4050    1.0790 c3        1 PTY     -0.078400
     34 C34        -6.0030    3.4890    2.1270 c3        1 PTY     -0.079400
     35 C35        -6.8850    4.7000    1.9070 c3        1 PTY     -0.078400
     36 C36        -7.9740    4.7840    2.9540 c3        1 PTY     -0.079400
     37 C37        -8.8560    5.9950    2.7340 c3        1 PTY     -0.078400
     38 C38        -9.9460    6.0780    3.7810 c3        1 PTY     -0.079400
     39 C39       -10.8270    7.2890    3.5620 c3        1 PTY     -0.078400
     40 C40       -11.9170    7.3720    4.6090 c3        1 PTY     -0.079400
     41 C41       -12.7990    8.5830    4.3900 c3        1 PTY     -0.079400
     42 C42       -13.8890    8.6660    5.4360 c3        1 PTY     -0.079400
     43 C43       -14.7720    9.8760    5.2180 c3        1 PTY     -0.080400
     44 C44       -15.8590    9.9630    6.2580 c3        1 PTY     -0.092100
     45 P1          3.3950   -2.7290    0.2510 p5        1 PTY      1.433800
     46 O11         2.5750   -3.5070    1.4450 os        1 PTY     -0.556200
     47 O12         4.2590   -1.7060    0.8730 o         1 PTY     -0.832000
     48 O13         3.8170   -3.7350   -0.7390 o         1 PTY     -0.832000
     49 O14         2.0870   -1.9330   -0.4020 os        1 PTY     -0.580200
     50 N1          0.2270   -6.3380    1.8110 n3        1 PTY     -0.907800
     51 HC11       -0.1050   -0.6120    1.2240 h1        1 PTY      0.079200
     52 HC12       -0.2680   -0.8670   -0.5850 h1        1 PTY      0.079200
     53 HC21        0.6070   -4.5440    2.8200 h1        1 PTY      0.053700
     54 HC22        1.9950   -5.7100    2.7340 h1        1 PTY      0.053700
     55 HC31        0.9010   -4.0020    0.3620 h1        1 PTY      0.031700
     56 HC32        2.2980   -5.1790    0.2700 h1        1 PTY      0.031700
     57 HC51        1.9540   -0.5350   -1.8860 h1        1 PTY      0.040200
     58 HC52        3.3660   -0.3280   -0.7120 h1        1 PTY      0.040200
     59 HC6         1.4340    1.3720   -0.5200 h1        1 PTY      0.070700
     60 H111        4.4940   -0.1210    2.3560 hc        1 PTY      0.115700
     61 H112        3.2390    0.5780    3.4730 hc        1 PTY      0.115700
     62 H121        5.5320    2.2260    2.1820 hc        1 PTY      0.043200
     63 H122        4.3460    2.8220    3.4050 hc        1 PTY      0.043200
     64 H131        5.1850    1.1040    5.0550 hc        1 PTY      0.045200
     65 H132        6.3780    0.5220    3.8310 hc        1 PTY      0.045200
     66 H141        6.2110    3.4040    4.9640 hc        1 PTY      0.036200
     67 H142        7.4030    2.8220    3.7400 hc        1 PTY      0.036200
     68 H151        7.0580    1.6890    6.6040 hc        1 PTY      0.040200
     69 H152        8.2510    1.1090    5.3800 hc        1 PTY      0.040200
     70 H161        9.2770    3.4070    5.2900 hc        1 PTY      0.037200
     71 H162        8.0840    3.9890    6.5130 hc        1 PTY      0.037200
     72 H171       10.1240    1.6930    6.9290 hc        1 PTY      0.039200
     73 H172        8.9310    2.2740    8.1530 hc        1 PTY      0.039200
     74 H181       11.1500    3.9910    6.8400 hc        1 PTY      0.037700
     75 H182        9.9570    4.5730    8.0630 hc        1 PTY      0.037700
     76 H191       11.9960    2.2770    8.4790 hc        1 PTY      0.039200
     77 H192       10.8030    2.8580    9.7030 hc        1 PTY      0.039200
     78 H201       13.0230    4.5750    8.3890 hc        1 PTY      0.038200
     79 H202       11.8290    5.1560    9.6120 hc        1 PTY      0.038200
     80 H211       13.8680    2.8610   10.0300 hc        1 PTY      0.039200
     81 H212       12.6750    3.4420   11.2520 hc        1 PTY      0.039200
     82 H221       14.8950    5.1590    9.9400 hc        1 PTY      0.038700
     83 H222       13.7010    5.7400   11.1620 hc        1 PTY      0.038700
     84 H231       15.7400    3.4440   11.5800 hc        1 PTY      0.039200
     85 H232       14.5460    4.0250   12.8030 hc        1 PTY      0.039200
     86 H241       16.7670    5.7430   11.4900 hc        1 PTY      0.038700
     87 H242       15.5720    6.3240   12.7130 hc        1 PTY      0.038700
     88 H251       17.6120    4.0280   13.1300 hc        1 PTY      0.039700
     89 H252       16.4170    4.6090   14.3530 hc        1 PTY      0.039700
     90 H261       17.4440    6.9080   14.2630 hc        1 PTY      0.038700
     91 H262       18.6380    6.3270   13.0410 hc        1 PTY      0.038700
     92 H271       18.2890    5.1930   15.9040 hc        1 PTY      0.039700
     93 H272       19.4830    4.6120   14.6810 hc        1 PTY      0.039700
     94 H281       19.3130    7.4910   15.8130 hc        1 PTY      0.037700
     95 H282       20.5080    6.9100   14.5910 hc        1 PTY      0.037700
     96 H291       21.3800    5.2200   16.2420 hc        1 PTY      0.031700
     97 H292       21.4910    6.9110   16.8840 hc        1 PTY      0.031700
     98 H293       20.1820    5.8030   17.4670 hc        1 PTY      0.031700
     99 H311       -3.3750    2.1440   -0.7720 hc        1 PTY      0.072200
    100 H312       -2.2470    2.9990    0.3610 hc        1 PTY      0.072200
    101 H321       -3.5840    2.2310    2.3250 hc        1 PTY      0.057200
    102 H322       -4.6570    1.2550    1.2500 hc        1 PTY      0.057200
    103 H331       -5.3760    3.3570    0.0580 hc        1 PTY      0.038200
    104 H332       -4.2850    4.3340    1.1150 hc        1 PTY      0.038200
    105 H341       -5.5410    3.5400    3.1470 hc        1 PTY      0.042700
    106 H342       -6.6280    2.5570    2.0940 hc        1 PTY      0.042700
    107 H351       -7.3470    4.6480    0.8860 hc        1 PTY      0.038200
    108 H352       -6.2590    5.6310    1.9390 hc        1 PTY      0.038200
    109 H361       -7.5110    4.8350    3.9740 hc        1 PTY      0.040200
    110 H362       -8.5990    3.8530    2.9210 hc        1 PTY      0.040200
    111 H371       -9.3180    5.9430    1.7130 hc        1 PTY      0.038700
    112 H372       -8.2310    6.9260    2.7670 hc        1 PTY      0.038700
    113 H381       -9.4830    6.1300    4.8020 hc        1 PTY      0.039700
    114 H382      -10.5700    5.1470    3.7490 hc        1 PTY      0.039700
    115 H391      -11.2900    7.2370    2.5410 hc        1 PTY      0.038700
    116 H392      -10.2020    8.2200    3.5950 hc        1 PTY      0.038700
    117 H401      -12.5420    6.4410    4.5760 hc        1 PTY      0.039700
    118 H402      -11.4550    7.4230    5.6300 hc        1 PTY      0.039700
    119 H411      -12.1740    9.5140    4.4230 hc        1 PTY      0.038700
    120 H412      -13.2610    8.5310    3.3690 hc        1 PTY      0.038700
    121 H421      -14.5140    7.7350    5.4040 hc        1 PTY      0.039700
    122 H422      -13.4270    8.7170    6.4570 hc        1 PTY      0.039700
    123 H431      -15.2310    9.8240    4.1960 hc        1 PTY      0.037700
    124 H432      -14.1440   10.8060    5.2500 hc        1 PTY      0.037700
    125 H441      -16.4970   10.8620    6.0790 hc        1 PTY      0.031367
    126 H442      -15.4190   10.0410    7.2820 hc        1 PTY      0.031367
    127 H443      -16.5090    9.0560    6.2260 hc        1 PTY      0.031367
    128 HN11        0.6780   -7.0010    1.2100 hn        1 PTY      0.332800
    129 HN12       -0.5660   -5.9700    1.3200 hn        1 PTY      0.332800
@<TRIPOS>BOND
     1    1    4 1
     2    1    6 1
     3    1   51 1
     4    1   52 1
     5    2    3 1
     6    2   50 1
     7    2   53 1
     8    2   54 1
     9    3   46 1
    10    3   55 1
    11    3   56 1
    12    4   29 1
    13    5    6 1
    14    5   49 1
    15    5   57 1
    16    5   58 1
    17    6    7 1
    18    6   59 1
    19    7    8 1
    20    8    9 2
    21    8   10 1
    22   10   11 1
    23   10   60 1
    24   10   61 1
    25   11   12 1
    26   11   62 1
    27   11   63 1
    28   12   13 1
    29   12   64 1
    30   12   65 1
    31   13   14 1
    32   13   66 1
    33   13   67 1
    34   14   15 1
    35   14   68 1
    36   14   69 1
    37   15   16 1
    38   15   70 1
    39   15   71 1
    40   16   17 1
    41   16   72 1
    42   16   73 1
    43   17   18 1
    44   17   74 1
    45   17   75 1
    46   18   19 1
    47   18   76 1
    48   18   77 1
    49   19   20 1
    50   19   78 1
    51   19   79 1
    52   20   21 1
    53   20   80 1
    54   20   81 1
    55   21   22 1
    56   21   82 1
    57   21   83 1
    58   22   23 1
    59   22   84 1
    60   22   85 1
    61   23   24 1
    62   23   86 1
    63   23   87 1
    64   24   25 1
    65   24   88 1
    66   24   89 1
    67   25   26 1
    68   25   90 1
    69   25   91 1
    70   26   27 1
    71   26   92 1
    72   26   93 1
    73   27   28 1
    74   27   94 1
    75   27   95 1
    76   28   96 1
    77   28   97 1
    78   28   98 1
    79   29   30 1
    80   29   31 2
    81   30   32 1
    82   30   99 1
    83   30  100 1
    84   32   33 1
    85   32  101 1
    86   32  102 1
    87   33   34 1
    88   33  103 1
    89   33  104 1
    90   34   35 1
    91   34  105 1
    92   34  106 1
    93   35   36 1
    94   35  107 1
    95   35  108 1
    96   36   37 1
    97   36  109 1
    98   36  110 1
    99   37   38 1
   100   37  111 1
   101   37  112 1
   102   38   39 1
   103   38  113 1
   104   38  114 1
   105   39   40 1
   106   39  115 1
   107   39  116 1
   108   40   41 1
   109   40  117 1
   110   40  118 1
   111   41   42 1
   112   41  119 1
   113   41  120 1
   114   42   43 1
   115   42  121 1
   116   42  122 1
   117   43   44 1
   118   43  123 1
   119   43  124 1
   120   44  125 1
   121   44  126 1
   122   44  127 1
   123   45   46 1
   124   45   47 1
   125   45   48 1
   126   45   49 1
   127   50  128 1
   128   50  129 1
@<TRIPOS>SUBSTRUCTURE
     1 PTY         1 TEMP              0 ****  ****    0 ROOT
