@<TRIPOS>MOLECULE
molecule
   48    50     1     0     0
SMALL
bcc


@<TRIPOS>ATOM
      1 C19          0.0000     0.0000     0.0000 c3         1 PU0       0.104700
      2 C5           0.8710     0.0000     2.3130 ca         1 PU0      -0.185000
      3 O20          1.4290     0.0000     0.0000 os         1 PU0      -0.277900
      4 C6           1.8210     0.0000     1.3030 ca         1 PU0       0.107100
      5 C4           1.2700     0.0010     3.6350 ca         1 PU0      -0.180000
      6 C3           2.6210    -0.0030     3.9520 ca         1 PU0       0.085100
      7 O2           3.0130    -0.0040     5.2540 os         1 PU0      -0.299900
      8 C8           1.8230     0.0020     6.0440 c3         1 PU0       0.106700
      9 C2           3.5700    -0.0100     2.9420 ca         1 PU0      -0.123000
     10 C1           3.1710    -0.0110     1.6190 ca         1 PU0      -0.090300
     11 C9           4.2030    -0.0150     0.5210 c3         1 PU0      -0.018400
     12 C10          4.3650    -1.4160    -0.0090 cc         1 PU0       0.417800
     13 N1           3.6120    -1.9600    -0.9200 nd         1 PU0      -0.563100
     14 C11          4.0370    -3.2250    -1.1590 ca         1 PU0      -0.215200
     15 C13          3.6230    -4.2610    -2.0140 ca         1 PU0       0.812200
     16 N5           2.5450    -4.0880    -2.8640 nv         1 PU0      -0.991500
     17 C12          5.1410    -3.4560    -0.3230 ca         1 PU0       0.491800
     18 N4           5.7460    -4.6380    -0.3610 nb         1 PU0      -0.815000
     19 C14          5.3220    -5.5830    -1.1800 ca         1 PU0       0.949200
     20 N3           4.2910    -5.4090    -1.9870 nb         1 PU0      -0.850000
     21 N2           5.3210    -2.2990     0.3940 na         1 PU0      -0.239000
     22 C15          6.3550    -2.0570     1.4020 c3         1 PU0       0.047300
     23 C16          5.8470    -2.5090     2.7720 c3         1 PU0      -0.111400
     24 C17          6.8730    -2.1380     3.8450 c3         1 PU0      -0.082400
     25 C18          6.3650    -2.5880     5.2150 c3         1 PU0      -0.092100
     26 F1           5.9670    -6.7700    -1.1930 f          1 PU0      -0.190200
     27 H191        -0.3610    -0.8920     0.4980 h1         1 PU0       0.042700
     28 H192        -0.3610     0.8770     0.5230 h1         1 PU0       0.042700
     29 H193        -0.3610     0.0150    -1.0210 h1         1 PU0       0.042700
     30 H4           0.5290     0.0020     4.4250 ha         1 PU0       0.145000
     31 H8C1         2.0870    -0.0080     7.0950 h1         1 PU0       0.043700
     32 H8C2         1.2310    -0.8750     5.8120 h1         1 PU0       0.043700
     33 H8C3         1.2480     0.8940     5.8250 h1         1 PU0       0.043700
     34 H2           4.6240    -0.0160     3.1900 ha         1 PU0       0.147000
     35 H9C1         3.8810     0.6390    -0.2800 hc         1 PU0       0.074700
     36 H9C2         5.1500     0.3340     0.9140 hc         1 PU0       0.074700
     37 H5N1         2.0190    -4.8820    -3.1730 hn         1 PU0       0.451800
     38 H5N2         2.3120    -3.1740    -3.1980 hn         1 PU0       0.451800
     39 H151         6.5870    -1.0000     1.4340 h1         1 PU0       0.067200
     40 H152         7.2470    -2.6160     1.1460 h1         1 PU0       0.067200
     41 H161         5.7010    -3.5820     2.7680 hc         1 PU0       0.063200
     42 H162         4.9060    -2.0180     2.9880 hc         1 PU0       0.063200
     43 H171         7.0200    -1.0640     3.8490 hc         1 PU0       0.040200
     44 H172         7.8140    -2.6300     3.6300 hc         1 PU0       0.040200
     45 H181         7.1680    -3.0730     5.7570 hc         1 PU0       0.037700
     46 H182         5.5450    -3.2840     5.0850 hc         1 PU0       0.037700
     47 H183         6.0210    -1.7250     5.7740 hc         1 PU0       0.037700
     48 H5          -0.1830     0.0040     2.0650 ha         1 PU0       0.147000
@<TRIPOS>BOND
     1     1     3 1
     2     1    27 1
     3     1    28 1
     4     1    29 1
     5     2     4 ar
     6     2     5 ar
     7     2    48 1
     8     3     4 1
     9     4    10 ar
    10     5     6 ar
    11     5    30 1
    12     6     7 1
    13     6     9 ar
    14     7     8 1
    15     8    31 1
    16     8    32 1
    17     8    33 1
    18     9    10 ar
    19     9    34 1
    20    10    11 1
    21    11    12 1
    22    11    35 1
    23    11    36 1
    24    12    13 2
    25    12    21 1
    26    13    14 1
    27    14    15 ar
    28    14    17 ar
    29    15    16 1
    30    15    20 ar
    31    16    37 1
    32    16    38 1
    33    17    18 ar
    34    17    21 1
    35    18    19 ar
    36    19    20 ar
    37    19    26 1
    38    21    22 1
    39    22    23 1
    40    22    39 1
    41    22    40 1
    42    23    24 1
    43    23    41 1
    44    23    42 1
    45    24    25 1
    46    24    43 1
    47    24    44 1
    48    25    45 1
    49    25    46 1
    50    25    47 1
@<TRIPOS>SUBSTRUCTURE
     1 PU0         1 TEMP              0 ****  ****    0 ROOT
