@<TRIPOS>MOLECULE
molecule
   51    53     1     0     0
SMALL
bcc


@<TRIPOS>ATOM
      1 Cl           0.0000     0.0000     0.0000 cl         1 PU1      -0.078400
      2 C13          1.7360     0.0000     0.0000 ca         1 PU1      -0.012600
      3 C15          2.4290     0.0000     1.2020 ca         1 PU1       0.119100
      4 O3           1.7480     0.0010     2.3800 os         1 PU1      -0.309900
      5 C20          1.6000     1.3680     2.7710 c3         1 PU1       0.118700
      6 C17          3.8170    -0.0050     1.2010 ca         1 PU1       0.053100
      7 O2           4.5000    -0.0050     2.3780 os         1 PU1      -0.306900
      8 C19          4.6880    -1.3720     2.7470 c3         1 PU1       0.116700
      9 C16          4.5080    -0.0010    -0.0040 ca         1 PU1       0.122100
     10 O1           5.8670    -0.0020    -0.0110 os         1 PU1      -0.273900
     11 C18          6.2750    -0.0030    -1.3800 c3         1 PU1       0.062700
     12 C14          3.8080    -0.0010    -1.2020 ca         1 PU1      -0.225000
     13 C12          2.4270    -0.0010    -1.1970 ca         1 PU1      -0.029300
     14 C6           1.6710    -0.0010    -2.5010 c3         1 PU1      -0.118400
     15 C5           1.4180    -1.4220    -2.9340 cc         1 PU1       0.409800
     16 N3           0.3710    -2.1240    -2.6150 nd         1 PU1      -0.571100
     17 C2           0.4680    -3.3560    -3.1730 ca         1 PU1      -0.231200
     18 C3          -0.3410    -4.5040    -3.1750 ca         1 PU1       0.816200
     19 N5          -1.5430    -4.5260    -2.4880 nv         1 PU1      -0.977500
     20 C1           1.6750    -3.3930    -3.8880 ca         1 PU1       0.518800
     21 N1           2.0100    -4.5050    -4.5360 nb         1 PU1      -0.809000
     22 C4           1.2210    -5.5600    -4.5100 ca         1 PU1       0.956200
     23 N2           0.0730    -5.5710    -3.8510 nb         1 PU1      -0.859000
     24 N4           2.2500    -2.1590    -3.7240 na         1 PU1      -0.232000
     25 C7           3.5250    -1.7130    -4.2920 c3         1 PU1      -0.191700
     26 C8           3.2800    -1.0830    -5.6640 c3         1 PU1      -0.222400
     27 C9           4.6110    -0.6190    -6.2570 c3         1 PU1       0.018700
     28 C10          4.3750    -0.0110    -7.5770 c1         1 PU1      -0.186100
     29 C11          4.2070     0.4740    -8.6320 c1         1 PU1      -0.105500
     30 F            1.5950    -6.6710    -5.1820 f          1 PU1      -0.188200
     31 H201         1.8320     2.0110     1.9310 h1         1 PU1       0.042700
     32 H202         0.5790     1.5430     3.0890 h1         1 PU1       0.042700
     33 H203         2.2750     1.5850     3.5900 h1         1 PU1       0.042700
     34 H191         4.0210    -1.9980     2.1660 h1         1 PU1       0.041700
     35 H192         5.7140    -1.6600     2.5540 h1         1 PU1       0.041700
     36 H193         4.4710    -1.4940     3.8010 h1         1 PU1       0.041700
     37 H181         6.6560    -0.9830    -1.6420 h1         1 PU1       0.056700
     38 H182         5.4270     0.2350    -2.0100 h1         1 PU1       0.056700
     39 H183         7.0520     0.7370    -1.5260 h1         1 PU1       0.056700
     40 H14          4.3450     0.0020    -2.1430 ha         1 PU1       0.168000
     41 H6C1         1.8500     0.9310    -3.0230 hc         1 PU1       0.109200
     42 H6C2         0.6110    -0.1070    -2.3040 hc         1 PU1       0.109200
     43 H5N1        -1.8300    -3.7270    -1.9570 hn         1 PU1       0.454800
     44 H5N2        -2.1300    -5.3350    -2.5330 hn         1 PU1       0.454800
     45 H7C1         3.8410    -0.8030    -3.7980 h1         1 PU1       0.161700
     46 H7C2         3.4010    -1.5250    -5.3520 h1         1 PU1       0.161700
     47 H8C1         2.2450    -0.7720    -5.7390 hc         1 PU1       0.116700
     48 H8C2         3.4970    -1.8090    -6.4390 hc         1 PU1       0.116700
     49 H9C1         5.1690    -1.4780    -6.6090 hc         1 PU1       0.082700
     50 H9C2         5.1850    -0.1020    -5.4970 hc         1 PU1       0.082700
     51 H11          4.0350     0.9280    -9.6010 ha         1 PU1       0.174500
@<TRIPOS>BOND
     1     1     2 1
     2     2     3 ar
     3     2    13 ar
     4     3     4 1
     5     3     6 ar
     6     4     5 1
     7     5    31 1
     8     5    32 1
     9     5    33 1
    10     6     7 1
    11     6     9 ar
    12     7     8 1
    13     8    34 1
    14     8    35 1
    15     8    36 1
    16     9    10 1
    17     9    12 ar
    18    10    11 1
    19    11    37 1
    20    11    38 1
    21    11    39 1
    22    12    13 ar
    23    12    40 1
    24    13    14 1
    25    14    15 1
    26    14    41 1
    27    14    42 1
    28    15    16 2
    29    15    24 1
    30    16    17 1
    31    17    18 ar
    32    17    20 ar
    33    18    19 1
    34    18    23 ar
    35    19    43 1
    36    19    44 1
    37    20    21 ar
    38    20    24 1
    39    21    22 ar
    40    22    23 ar
    41    22    30 1
    42    24    25 1
    43    25    26 1
    44    25    45 1
    45    25    46 1
    46    26    27 1
    47    26    47 1
    48    26    48 1
    49    27    28 1
    50    27    49 1
    51    27    50 1
    52    28    29 3
    53    29    51 1
@<TRIPOS>SUBSTRUCTURE
     1 PU1         1 TEMP              0 ****  ****    0 ROOT
