@<TRIPOS>MOLECULE
PU2
   36    38     1     0     0
SMALL
bcc


@<TRIPOS>ATOM
      1 C18          0.0000     0.0000     0.0000 c3         1 PU2       0.218700
      2 N2           5.0530    -2.3000     0.9690 nc         1 PU2      -0.581700
      3 C12          5.2370    -3.4680     0.3240 ca         1 PU2       0.549300
      4 N4           5.7120    -4.6670     0.6760 nb         1 PU2      -0.567000
      5 C14          5.7770    -5.6450    -0.2030 ca         1 PU2       0.765200
      6 C9           4.2030     0.0000     0.5190 c3         1 PU2       0.051600
      7 N3           5.3870    -5.4980    -1.4590 nb         1 PU2      -0.639000
      8 C11          4.8120    -3.2730    -0.9990 ca         1 PU2      -0.553800
      9 C13          4.9020    -4.3390    -1.8960 ca         1 PU2       0.583200
     10 N5           4.4960    -4.1930    -3.2120 nv         1 PU2      -0.657500
     11 N1           4.3820    -1.9640    -1.0740 na         1 PU2       0.321700
     12 C10          4.5470    -1.4200     0.1520 cd         1 PU2       0.228800
     13 C1           1.8220     0.0000     1.3010 ca         1 PU2       0.096100
     14 C6           3.1720    -0.0010     1.6180 ca         1 PU2      -0.097300
     15 C5           3.5720     0.0060     2.9390 ca         1 PU2      -0.072000
     16 C2           0.8740    -0.0000     2.3130 ca         1 PU2      -0.174000
     17 C3           1.2730     0.0000     3.6340 ca         1 PU2      -0.174000
     18 C4           2.6230    -0.0000     3.9500 ca         1 PU2       0.103100
     19 O1           3.0160    -0.0000     5.2520 os         1 PU2      -0.277900
     20 O2           1.4290     0.0000     0.0000 os         1 PU2      -0.298900
     21 C7           1.8270     0.0000     6.0430 c3         1 PU2       0.216700
     22 H181        -0.3610    -0.8830     0.5130 h1         1 PU2       0.003033
     23 H182        -0.3610    -0.0030    -1.0210 h1         1 PU2       0.003033
     24 H183        -0.3610     0.8860     0.5080 h1         1 PU2       0.003033
     25 H9C1         3.8050     0.5110    -0.3490 hc         1 PU2       0.032200
     26 H9C2         5.0950     0.5110     0.8610 hc         1 PU2       0.032200
     27 H5N1         5.1540    -3.9070    -3.9090 hn         1 PU2       0.281800
     28 H5N2         3.5540    -4.4100    -3.4710 hn         1 PU2       0.281800
     29 H1           4.0120    -1.5050    -1.8830 hn         1 PU2       0.133700
     30 H5           4.6270     0.0050     3.1860 ha         1 PU2       0.130000
     31 H2          -0.1810     0.0000     2.0660 ha         1 PU2       0.131000
     32 H3           0.5320    -0.0020     4.4240 ha         1 PU2       0.132000
     33 H7C1         2.0930     0.0010     7.0940 h1         1 PU2       0.001700
     34 H7C2         1.2440     0.8850     5.8180 h1         1 PU2       0.001700
     35 H7C3         1.2440    -0.8840     5.8190 h1         1 PU2       0.001700
     36 F1           6.2620    -6.8420     0.1910 f          1 PU2      -0.210200
@<TRIPOS>BOND
     1     1    20 1   
     2     1    22 1   
     3     1    23 1   
     4     1    24 1   
     5     2     3 1   
     6     2    12 2   
     7     3     4 ar  
     8     3     8 ar  
     9     4     5 ar  
    10     5     7 ar  
    11     5    36 1   
    12     6    12 1   
    13     6    14 1   
    14     6    25 1   
    15     6    26 1   
    16     7     9 ar  
    17     8     9 ar  
    18     8    11 1   
    19     9    10 1   
    20    10    27 1   
    21    10    28 1   
    22    11    12 1   
    23    11    29 1   
    24    13    14 ar  
    25    13    16 ar  
    26    13    20 1   
    27    14    15 ar  
    28    15    18 ar  
    29    15    30 1   
    30    16    17 ar  
    31    16    31 1   
    32    17    18 ar  
    33    17    32 1   
    34    18    19 1   
    35    19    21 1   
    36    21    33 1   
    37    21    34 1   
    38    21    35 1   
@<TRIPOS>SUBSTRUCTURE
     1 PU2         1 TEMP              0 ****  ****    0 ROOT
