@<TRIPOS>MOLECULE
molecule
   52    54     1     0     0
SMALL
bcc


@<TRIPOS>ATOM
      1 C19          0.0000     0.0000     0.0000 c3         1 PU3       0.101700
      2 O3           1.4290     0.0000     0.0000 os         1 PU3      -0.278400
      3 C5           1.8220     0.0000     1.3020 ca         1 PU3       0.136600
      4 C6           0.8750     0.0010     2.3130 ca         1 PU3      -0.240500
      5 C4           3.1750     0.0000     1.6200 ca         1 PU3       0.037100
      6 O1           4.1090     0.0000     0.6300 os         1 PU3      -0.295900
      7 C7           4.3910     1.3680     0.3290 c3         1 PU3       0.114700
      8 C3           3.5710    -0.0000     2.9510 ca         1 PU3       0.136600
      9 O2           4.8940    -0.0000     3.2680 os         1 PU3      -0.278400
     10 C8           4.9770     0.0010     4.6940 c3         1 PU3       0.101700
     11 C2           2.6170     0.0050     3.9570 ca         1 PU3      -0.240500
     12 C1           1.2720    -0.0000     3.6360 ca         1 PU3      -0.022300
     13 C9           0.2390     0.0000     4.7320 c3         1 PU3      -0.030400
     14 C10         -0.1060    -1.4200     5.0980 cc         1 PU3       0.412800
     15 N1          -1.0520    -2.1240     4.5470 nd         1 PU3      -0.584100
     16 C11         -1.0860    -3.3550     5.1140 ca         1 PU3      -0.210200
     17 C13         -1.8730    -4.5040     4.9320 ca         1 PU3       0.789200
     18 N5          -2.8850    -4.5280     3.9870 nv         1 PU3      -0.984500
     19 C12         -0.0700    -3.3920     6.0820 ca         1 PU3       0.474800
     20 N4           0.1030    -4.5020     6.7940 nb         1 PU3      -0.797000
     21 C14         -0.6570    -5.5560     6.5880 ca         1 PU3       0.741900
     22 N3          -1.6220    -5.5690     5.6850 nb         1 PU3      -0.837000
     23 N2           0.5270    -2.1580     6.0530 na         1 PU3      -0.238000
     24 C15          1.6440    -1.7140     6.8910 c3         1 PU3       0.045300
     25 C16          1.1010    -1.0800     8.1720 c3         1 PU3      -0.104400
     26 C17          2.2670    -0.6180     9.0470 c3         1 PU3      -0.083400
     27 C18          1.7240     0.0180    10.3280 c3         1 PU3      -0.092100
     28 H191        -0.3610    -0.8880     0.5050 h1         1 PU3       0.045200
     29 H192        -0.3610     0.8810     0.5160 h1         1 PU3       0.045200
     30 H193        -0.3610     0.0060    -1.0210 h1         1 PU3       0.045200
     31 H6          -0.1800    -0.0040     2.0660 ha         1 PU3       0.148000
     32 H7C1         3.4620     1.9020     0.1710 h1         1 PU3       0.036700
     33 H7C2         4.9300     1.8160     1.1550 h1         1 PU3       0.036700
     34 H7C3         4.9960     1.4220    -0.5690 h1         1 PU3       0.036700
     35 H8C1         4.5000    -0.8910     5.0840 h1         1 PU3       0.045200
     36 H8C2         4.4760     0.8780     5.0850 h1         1 PU3       0.045200
     37 H8C3         6.0170     0.0150     4.9950 h1         1 PU3       0.045200
     38 H2           2.9260     0.0050     4.9960 ha         1 PU3       0.148000
     39 H9C1         0.6350     0.5120     5.6010 hc         1 PU3       0.071700
     40 H9C2        -0.6520     0.5110     4.3870 hc         1 PU3       0.071700
     41 H5N1        -3.0580    -3.7230     3.4190 hn         1 PU3       0.449300
     42 H5N2        -3.4430    -5.3510     3.8730 hn         1 PU3       0.449300
     43 H14         -0.4870    -6.4460     7.1820 h5         1 PU3       0.060100
     44 H151         2.2340    -0.9850     6.3490 h1         1 PU3       0.067700
     45 H152         2.2650    -2.5650     7.1450 h1         1 PU3       0.067700
     46 H161         0.4800    -0.2290     7.9180 hc         1 PU3       0.057200
     47 H162         0.5100    -1.8090     8.7130 hc         1 PU3       0.057200
     48 H171         2.8580     0.1110     8.5050 hc         1 PU3       0.040700
     49 H172         2.8870    -1.4690     9.3010 hc         1 PU3       0.040700
     50 H181         2.1270    -0.5030    11.1880 hc         1 PU3       0.037700
     51 H182         2.0180     1.0600    10.3670 hc         1 PU3       0.037700
     52 H183         0.6430    -0.0530    10.3360 hc         1 PU3       0.037700
@<TRIPOS>BOND
     1     1     2 1
     2     1    28 1
     3     1    29 1
     4     1    30 1
     5     2     3 1
     6     3     4 ar
     7     3     5 ar
     8     4    12 ar
     9     4    31 1
    10     5     6 1
    11     5     8 ar
    12     6     7 1
    13     7    32 1
    14     7    33 1
    15     7    34 1
    16     8     9 1
    17     8    11 ar
    18     9    10 1
    19    10    35 1
    20    10    36 1
    21    10    37 1
    22    11    12 ar
    23    11    38 1
    24    12    13 1
    25    13    14 1
    26    13    39 1
    27    13    40 1
    28    14    15 2
    29    14    23 1
    30    15    16 1
    31    16    17 ar
    32    16    19 ar
    33    17    18 1
    34    17    22 ar
    35    18    41 1
    36    18    42 1
    37    19    20 ar
    38    19    23 1
    39    20    21 ar
    40    21    22 ar
    41    21    43 1
    42    23    24 1
    43    24    25 1
    44    24    44 1
    45    24    45 1
    46    25    26 1
    47    25    46 1
    48    25    47 1
    49    26    27 1
    50    26    48 1
    51    26    49 1
    52    27    50 1
    53    27    51 1
    54    27    52 1
@<TRIPOS>SUBSTRUCTURE
     1 PU3         1 TEMP              0 ****  ****    0 ROOT
