@<TRIPOS>MOLECULE
PU4
   44    46     1     0     0
SMALL
bcc


@<TRIPOS>ATOM
      1 C18          0.0000     0.0000     0.0000 c3         1 PU4       0.007900
      2 C17          1.5300     0.0000     0.0000 c3         1 PU4      -0.022400
      3 C16          2.0410     0.0000     1.4420 c3         1 PU4      -0.049400
      4 C15          3.5700     0.0010     1.4420 c3         1 PU4      -0.055700
      5 N2           4.0590    -0.0000     2.8230 na         1 PU4       0.229000
      6 C12          4.3340     1.1060     3.5870 ca         1 PU4       0.222800
      7 N4           4.2590     2.4190     3.3980 nb         1 PU4      -0.618000
      8 C14          4.5990     3.2550     4.3570 ca         1 PU4       0.635900
      9 N3           5.0180     2.8430     5.5400 nb         1 PU4      -0.660000
     10 C11          4.7700     0.6180     4.8300 ca         1 PU4      -0.182200
     11 C13          5.1200     1.5490     5.8220 ca         1 PU4       0.598200
     12 N5           5.5600     1.1280     7.0640 nv         1 PU4      -0.645500
     13 N1           4.7450    -0.7350     4.7590 nc         1 PU4      -0.486100
     14 C10          4.3290    -1.0980     3.5810 cd         1 PU4       0.219800
     15 C9           4.1690    -2.5250     3.1250 c3         1 PU4       0.046600
     16 C1           5.4540    -3.0000     2.4990 ca         1 PU4      -0.142300
     17 C6           6.4220    -3.6020     3.2800 ca         1 PU4      -0.051500
     18 C5           7.6010    -4.0380     2.7090 ca         1 PU4      -0.179000
     19 C2           5.6610    -2.8370     1.1420 ca         1 PU4      -0.051500
     20 C3           6.8410    -3.2660     0.5660 ca         1 PU4      -0.179000
     21 C4           7.8140    -3.8710     1.3490 ca         1 PU4       0.138100
     22 O1           8.9740    -4.2980     0.7830 os         1 PU4      -0.280900
     23 C7           8.8930    -3.9890    -0.6090 c3         1 PU4       0.216700
     24 H181        -0.3610     0.0300    -1.0210 hc         1 PU4       0.003700
     25 H182        -0.3610    -0.8990     0.4850 hc         1 PU4       0.003700
     26 H183        -0.3610     0.8690     0.5360 hc         1 PU4       0.003700
     27 H171         1.8900     0.8840    -0.5110 hc         1 PU4       0.013700
     28 H172         1.8900    -0.8840    -0.5110 hc         1 PU4       0.013700
     29 H161         1.6790     0.8840     1.9530 hc         1 PU4       0.028200
     30 H162         1.6800    -0.8850     1.9530 hc         1 PU4       0.028200
     31 H151         3.9310    -0.8830     0.9310 h1         1 PU4       0.046200
     32 H152         3.9300     0.8860     0.9320 h1         1 PU4       0.046200
     33 H14          4.5300     4.3200     4.1690 h5         1 PU4      -0.001900
     34 H5N1         4.9040     0.9890     7.8070 hn         1 PU4       0.281300
     35 H5N2         6.5380     0.9910     7.2280 hn         1 PU4       0.281300
     36 H9C1         3.3680    -2.5840     2.3980 hc         1 PU4       0.031700
     37 H9C2         3.9290    -3.1510     3.9770 hc         1 PU4       0.031700
     38 H6           6.2560    -3.7320     4.3430 ha         1 PU4       0.108500
     39 H5           8.3590    -4.5100     3.3220 ha         1 PU4       0.126000
     40 H2           4.9010    -2.3640     0.5310 ha         1 PU4       0.108500
     41 H3           7.0040    -3.1360    -0.4970 ha         1 PU4       0.126000
     42 H7C1         9.8010    -4.3120    -1.1030 h1         1 PU4       0.002700
     43 H7C2         8.0430    -4.5000    -1.0440 h1         1 PU4       0.002700
     44 H7C3         8.7750    -2.9190    -0.7340 h1         1 PU4       0.002700
@<TRIPOS>BOND
     1     1     2 1   
     2     1    24 1   
     3     1    25 1   
     4     1    26 1   
     5     2     3 1   
     6     2    27 1   
     7     2    28 1   
     8     3     4 1   
     9     3    29 1   
    10     3    30 1   
    11     4     5 1   
    12     4    31 1   
    13     4    32 1   
    14     5     6 1   
    15     5    14 1   
    16     6     7 ar  
    17     6    10 ar  
    18     7     8 ar  
    19     8     9 ar  
    20     8    33 1   
    21     9    11 ar  
    22    10    11 ar  
    23    10    13 1   
    24    11    12 1   
    25    12    34 1   
    26    12    35 1   
    27    13    14 2   
    28    14    15 1   
    29    15    16 1   
    30    15    36 1   
    31    15    37 1   
    32    16    17 ar  
    33    16    19 ar  
    34    17    18 ar  
    35    17    38 1   
    36    18    21 ar  
    37    18    39 1   
    38    19    20 ar  
    39    19    40 1   
    40    20    21 ar  
    41    20    41 1   
    42    21    22 1   
    43    22    23 1   
    44    23    42 1   
    45    23    43 1   
    46    23    44 1   
@<TRIPOS>SUBSTRUCTURE
     1 PU4         1 TEMP              0 ****  ****    0 ROOT
