@<TRIPOS>MOLECULE
molecule
   44    46     1     0     0
SMALL
bcc


@<TRIPOS>ATOM
      1 C18          0.0000     0.0000     0.0000 c3         1 PU5      -0.090100
      2 C17          1.5300     0.0000     0.0000 c3         1 PU5      -0.083400
      3 C16          2.0400     0.0000     1.4420 c3         1 PU5      -0.104400
      4 C15          3.5700    -0.0010     1.4420 c3         1 PU5       0.043300
      5 N2           4.0590    -0.0010     2.8230 na         1 PU5      -0.243000
      6 C12          4.3340     1.1050     3.5850 ca         1 PU5       0.442800
      7 N4           4.2630     2.4180     3.3970 nb         1 PU5      -0.756000
      8 C14          4.6010     3.2550     4.3540 ca         1 PU5       0.701900
      9 N3           5.0200     2.8440     5.5370 nb         1 PU5      -0.775000
     10 C11          4.7690     0.6190     4.8300 ca         1 PU5      -0.157200
     11 C13          5.1210     1.5500     5.8210 ca         1 PU5       0.774200
     12 N5           5.5610     1.1300     7.0640 nv         1 PU5      -1.073500
     13 N1           4.7440    -0.7350     4.7600 nc         1 PU5      -0.576100
     14 C10          4.3270    -1.0990     3.5830 cd         1 PU5       0.428800
     15 C1           6.4180    -3.6050     3.2840 ca         1 PU5      -0.141000
     16 C6           5.4510    -3.0020     2.5020 ca         1 PU5      -0.059300
     17 C5           5.6600    -2.8410     1.1460 ca         1 PU5      -0.158000
     18 C2           7.5990    -4.0430     2.7120 ca         1 PU5      -0.088000
     19 C3           7.8130    -3.8800     1.3580 ca         1 PU5      -0.218000
     20 C4           6.8440    -3.2760     0.5710 ca         1 PU5       0.121100
     21 O1           7.0530    -3.1150    -0.7620 os         1 PU5      -0.299900
     22 C7           8.3430    -3.6590    -1.0470 c3         1 PU5       0.105700
     23 H181        -0.3610    -0.8990     0.4850 hc         1 PU5       0.036033
     24 H182        -0.3610     0.8690     0.5360 hc         1 PU5       0.036033
     25 H183        -0.3610     0.0290    -1.0210 hc         1 PU5       0.036033
     26 H171         1.8910     0.8840    -0.5110 hc         1 PU5       0.043200
     27 H172         1.8910    -0.8840    -0.5110 hc         1 PU5       0.043200
     28 H161         1.6790    -0.8840     1.9530 hc         1 PU5       0.055700
     29 H162         1.6800     0.8850     1.9520 hc         1 PU5       0.055700
     30 H151         3.9310    -0.8850     0.9320 h1         1 PU5       0.071200
     31 H152         3.9310     0.8830     0.9310 h1         1 PU5       0.071200
     32 H14          4.5340     4.3190     4.1650 h5         1 PU5       0.061100
     33 H9C1         3.9260    -3.1510     3.9790 hc         1 PU5       0.074200
     34 H9C2         3.3660    -2.5850     2.4000 hc         1 PU5       0.074200
     35 H5N1         6.5390     0.9930     7.2280 hn         1 PU5       0.442800
     36 H5N2         4.9050     0.9930     7.8070 hn         1 PU5       0.442800
     37 H5           4.9010    -2.3690     0.5340 ha         1 PU5       0.138000
     38 H2           8.3550    -4.5150     3.3270 ha         1 PU5       0.134000
     39 H3           8.7390    -4.2220     0.9110 ha         1 PU5       0.143000
     40 H7C1         8.5540    -3.5530    -2.1040 h1         1 PU5       0.044700
     41 H7C2         9.0940    -3.1290    -0.4740 h1         1 PU5       0.044700
     42 H7C3         8.3590    -4.7090    -0.7800 h1         1 PU5       0.044700
     43 C9           4.1660    -2.5260     3.1280 c3         1 PU5      -0.032400
     44 H1           6.2510    -3.7340     4.3470 ha         1 PU5       0.143000
@<TRIPOS>BOND
     1     1     2 1
     2     1    23 1
     3     1    24 1
     4     1    25 1
     5     2     3 1
     6     2    26 1
     7     2    27 1
     8     3     4 1
     9     3    28 1
    10     3    29 1
    11     4     5 1
    12     4    30 1
    13     4    31 1
    14     5     6 1
    15     5    14 1
    16     6     7 ar
    17     6    10 ar
    18     7     8 ar
    19     8     9 ar
    20     8    32 1
    21    43    14 1
    22    43    16 1
    23    43    33 1
    24    43    34 1
    25     9    11 ar
    26    10    11 ar
    27    10    13 1
    28    11    12 1
    29    12    35 1
    30    12    36 1
    31    13    14 2
    32    15    16 ar
    33    15    18 ar
    34    15    44 1
    35    16    17 ar
    36    17    20 ar
    37    17    37 1
    38    18    19 ar
    39    18    38 1
    40    19    20 ar
    41    19    39 1
    42    20    21 1
    43    21    22 1
    44    22    40 1
    45    22    41 1
    46    22    42 1
@<TRIPOS>SUBSTRUCTURE
     1 PU5         1 TEMP              0 ****  ****    0 ROOT
