@<TRIPOS>MOLECULE
molecule
   43    46     1     0     0
SMALL
bcc


@<TRIPOS>ATOM
      1 C18          0.0000     0.0000     0.0000 c3         1 PU6      -0.090100
      2 C17          1.5290     0.0000     0.0000 c3         1 PU6      -0.083400
      3 C16          2.0400     0.0000     1.4420 c3         1 PU6      -0.104400
      4 C15          3.5700     0.0010     1.4410 c3         1 PU6       0.044300
      5 N2           4.0600     0.0010     2.8220 na         1 PU6      -0.243000
      6 C12          4.3340     1.1060     3.5860 ca         1 PU6       0.442800
      7 N4           4.2610     2.4190     3.3960 nb         1 PU6      -0.755000
      8 C14          4.6010     3.2550     4.3540 ca         1 PU6       0.700900
      9 N3           5.0200     2.8450     5.5370 nb         1 PU6      -0.774000
     10 C11          4.7700     0.6190     4.8290 ca         1 PU6      -0.157200
     11 C13          5.1200     1.5500     5.8210 ca         1 PU6       0.775200
     12 N5           5.5620     1.1310     7.0630 nv         1 PU6      -1.073500
     13 N1           4.7450    -0.7340     4.7590 nc         1 PU6      -0.576100
     14 C10          4.3280    -1.0980     3.5810 cd         1 PU6       0.426800
     15 C9           4.1670    -2.5250     3.1260 c3         1 PU6      -0.026400
     16 C1           5.4510    -3.0010     2.5000 ca         1 PU6      -0.092300
     17 C6           5.6590    -2.8400     1.1430 ca         1 PU6      -0.113000
     18 C5           6.8420    -3.2720     0.5660 ca         1 PU6       0.050100
     19 C2           6.4180    -3.6030     3.2830 ca         1 PU6      -0.101000
     20 O3           7.2880    -3.2290    -0.7230 os         1 PU6      -0.325900
     21 C3           7.6000    -4.0420     2.7130 ca         1 PU6      -0.111000
     22 C4           7.8150    -3.8780     1.3540 ca         1 PU6       0.055100
     23 O1           8.8720    -4.2160     0.5600 os         1 PU6      -0.323900
     24 C7           8.7090    -3.4440    -0.6450 c3         1 PU6       0.331200
     25 H181        -0.3610    -0.8990     0.4860 hc         1 PU6       0.037033
     26 H182        -0.3610     0.8700     0.5350 hc         1 PU6       0.037033
     27 H183        -0.3610     0.0290    -1.0210 hc         1 PU6       0.037033
     28 H171         1.8900     0.8840    -0.5110 hc         1 PU6       0.042700
     29 H172         1.8900    -0.8840    -0.5110 hc         1 PU6       0.042700
     30 H161         1.6790     0.8840     1.9530 hc         1 PU6       0.055700
     31 H162         1.6800    -0.8850     1.9530 hc         1 PU6       0.055700
     32 H151         3.9300     0.8850     0.9310 h1         1 PU6       0.069700
     33 H152         3.9310    -0.8830     0.9300 h1         1 PU6       0.069700
     34 H14          4.5350     4.3200     4.1650 h5         1 PU6       0.061100
     35 H5N1         6.5400     0.9950     7.2270 hn         1 PU6       0.443300
     36 H5N2         4.9070     0.9930     7.8070 hn         1 PU6       0.443300
     37 H9C1         3.3670    -2.5840     2.3990 hc         1 PU6       0.074700
     38 H9C2         3.9280    -3.1510     3.9780 hc         1 PU6       0.074700
     39 H6           4.8780    -2.4150     0.5240 ha         1 PU6       0.138000
     40 H2           6.2480    -3.7390     4.3440 ha         1 PU6       0.152000
     41 H3           8.3560    -4.5140     3.3280 ha         1 PU6       0.148000
     42 H7C1         9.2320    -2.4990    -0.5630 h2         1 PU6       0.071200
     43 H7C2         9.0550    -4.0060    -1.5040 h2         1 PU6       0.071200
@<TRIPOS>BOND
     1     1     2 1
     2     1    25 1
     3     1    26 1
     4     1    27 1
     5     2     3 1
     6     2    28 1
     7     2    29 1
     8     3     4 1
     9     3    30 1
    10     3    31 1
    11     4     5 1
    12     4    32 1
    13     4    33 1
    14     5     6 1
    15     5    14 1
    16     6     7 ar
    17     6    10 ar
    18     7     8 ar
    19     8     9 ar
    20     8    34 1
    21     9    11 ar
    22    10    11 ar
    23    10    13 1
    24    11    12 1
    25    12    35 1
    26    12    36 1
    27    13    14 2
    28    14    15 1
    29    15    16 1
    30    15    37 1
    31    15    38 1
    32    16    17 ar
    33    16    19 ar
    34    17    18 ar
    35    17    39 1
    36    18    20 1
    37    18    22 ar
    38    19    21 ar
    39    19    40 1
    40    20    24 1
    41    21    22 ar
    42    21    41 1
    43    22    23 1
    44    23    24 1
    45    24    42 1
    46    24    43 1
@<TRIPOS>SUBSTRUCTURE
     1 PU6         1 TEMP              0 ****  ****    0 ROOT
