@<TRIPOS>MOLECULE
PU7
   48    50     1     0     0
SMALL
bcc


@<TRIPOS>ATOM
      1 C19          0.0000     0.0000     0.0000 c3         1 PU7       0.212700
      2 C5           0.8740    -0.0010     2.3130 ca         1 PU7      -0.177000
      3 O20          1.4280     0.0000     0.0000 os         1 PU7      -0.258900
      4 C6           1.8220     0.0000     1.3010 ca         1 PU7       0.118100
      5 C4           1.2730    -0.0010     3.6340 ca         1 PU7      -0.174000
      6 C3           2.6240    -0.0060     3.9510 ca         1 PU7       0.097100
      7 O2           3.0170    -0.0060     5.2520 os         1 PU7      -0.283900
      8 C8           1.8280    -0.0010     6.0430 c3         1 PU7       0.216700
      9 C2           3.5720    -0.0120     2.9390 ca         1 PU7      -0.116000
     10 C1           3.1730    -0.0110     1.6170 ca         1 PU7      -0.100300
     11 C9           4.2030    -0.0160     0.5170 c3         1 PU7       0.053600
     12 C10          4.3640    -1.4160    -0.0130 cc         1 PU7       0.200800
     13 N1           3.6110    -1.9610    -0.9230 nd         1 PU7      -0.475100
     14 C11          4.0340    -3.2250    -1.1630 ca         1 PU7      -0.235200
     15 C13          3.6190    -4.2610    -2.0170 ca         1 PU7       0.591200
     16 N5           2.5410    -4.0890    -2.8660 nv         1 PU7      -0.507500
     17 C12          5.1390    -3.4560    -0.3280 ca         1 PU7       0.257800
     18 N4           5.7420    -4.6390    -0.3670 nb         1 PU7      -0.673000
     19 C14          5.3180    -5.5810    -1.1840 ca         1 PU7       0.679900
     20 N3           4.2880    -5.4080    -1.9900 nb         1 PU7      -0.734000
     21 N2           5.3200    -2.3000     0.3880 na         1 PU7       0.232000
     22 C15          6.3550    -2.0590     1.3960 c3         1 PU7      -0.043700
     23 C16          5.8480    -2.5090     2.7670 c3         1 PU7      -0.069400
     24 C17          6.8750    -2.1390     3.8380 c3         1 PU7      -0.021400
     25 C18          6.3680    -2.5900     5.2080 c3         1 PU7       0.002900
     26 H191        -0.3610     0.0180    -1.0210 h1         1 PU7       0.001367
     27 H192        -0.3610    -0.8930     0.4950 h1         1 PU7       0.001367
     28 H193        -0.3610     0.8760     0.5260 h1         1 PU7       0.001367
     29 H4           0.5320    -0.0010     4.4240 ha         1 PU7       0.131000
     30 H8C1         1.2350    -0.8770     5.8100 h1         1 PU7       0.002033
     31 H8C2         2.0930    -0.0130     7.0930 h1         1 PU7       0.002033
     32 H8C3         1.2530     0.8910     5.8260 h1         1 PU7       0.002033
     33 H2           4.6270    -0.0180     3.1850 ha         1 PU7       0.123000
     34 H9C1         3.8800     0.6380    -0.2830 hc         1 PU7       0.033200
     35 H9C2         5.1510     0.3330     0.9090 hc         1 PU7       0.033200
     36 H5N1         1.9910    -4.8790    -3.1430 hn         1 PU7       0.275300
     37 H5N2         2.3300    -3.1810    -3.2310 hn         1 PU7       0.275300
     38 H14          5.8350    -6.5330    -1.1950 h5         1 PU7      -0.005900
     39 H151         7.2470    -2.6180     1.1390 h1         1 PU7       0.040700
     40 H152         6.5890    -1.0010     1.4270 h1         1 PU7       0.040700
     41 H161         5.7020    -3.5830     2.7630 hc         1 PU7       0.038200
     42 H162         4.9080    -2.0170     2.9830 hc         1 PU7       0.038200
     43 H171         7.8160    -2.6310     3.6210 hc         1 PU7       0.012200
     44 H172         7.0220    -1.0660     3.8420 hc         1 PU7       0.012200
     45 H181         5.2970    -2.4370     5.2650 hc         1 PU7       0.004700
     46 H182         6.8570    -2.0100     5.9820 hc         1 PU7       0.004700
     47 H183         6.5920    -3.6400     5.3480 hc         1 PU7       0.004700
     48 H5          -0.1810     0.0030     2.0660 ha         1 PU7       0.133000
@<TRIPOS>BOND
     1     1     3 1   
     2     1    26 1   
     3     1    27 1   
     4     1    28 1   
     5     2     4 ar  
     6     2     5 ar  
     7     2    48 1   
     8     3     4 1   
     9     4    10 ar  
    10     5     6 ar  
    11     5    29 1   
    12     6     7 1   
    13     6     9 ar  
    14     7     8 1   
    15     8    30 1   
    16     8    31 1   
    17     8    32 1   
    18     9    10 ar  
    19     9    33 1   
    20    10    11 1   
    21    11    12 1   
    22    11    34 1   
    23    11    35 1   
    24    12    13 2   
    25    12    21 1   
    26    13    14 1   
    27    14    15 ar  
    28    14    17 ar  
    29    15    16 1   
    30    15    20 ar  
    31    16    36 1   
    32    16    37 1   
    33    17    18 ar  
    34    17    21 1   
    35    18    19 ar  
    36    19    20 ar  
    37    19    38 1   
    38    21    22 1   
    39    22    23 1   
    40    22    39 1   
    41    22    40 1   
    42    23    24 1   
    43    23    41 1   
    44    23    42 1   
    45    24    25 1   
    46    24    43 1   
    47    24    44 1   
    48    25    45 1   
    49    25    46 1   
    50    25    47 1   
@<TRIPOS>SUBSTRUCTURE
     1 PU7         1 TEMP              0 ****  ****    0 ROOT
