@<TRIPOS>MOLECULE
PU8
   52    54     1     0     0
SMALL
bcc


@<TRIPOS>ATOM
      1 C19          0.0000     0.0000     0.0000 c3         1 PU8       0.235700
      2 O3           1.4280     0.0000     0.0000 os         1 PU8      -0.303900
      3 C5           1.8220     0.0000     1.3030 ca         1 PU8       0.125100
      4 C6           2.0710     1.1990     1.9540 ca         1 PU8      -0.084600
      5 C4           1.9690    -1.2010     1.9840 ca         1 PU8       0.054100
      6 O1           1.7200    -2.3800     1.3510 os         1 PU8      -0.296900
      7 C7           2.9530    -2.8010     0.7630 c3         1 PU8       0.234700
      8 C3           2.3710    -1.1970     3.3140 ca         1 PU8       0.123100
      9 O2           2.5150    -2.3700     3.9860 os         1 PU8      -0.261900
     10 C8           2.9310    -2.0390     5.3120 c3         1 PU8       0.195700
     11 C2           2.6230     0.0050     3.9560 ca         1 PU8      -0.223000
     12 C1           2.4760     1.1990     3.2750 ca         1 PU8      -0.048300
     13 C9           2.7500     2.5030     3.9770 c3         1 PU8       0.040600
     14 C10          4.1000     3.0240     3.5580 cc         1 PU8       0.192800
     15 N1           4.3300     3.7260     2.4870 nd         1 PU8      -0.479100
     16 C11          5.6490     4.0260     2.4190 ca         1 PU8      -0.243200
     17 C13          6.4550     4.7380     1.5150 ca         1 PU8       0.594200
     18 N5           5.9070     5.3230     0.3870 nv         1 PU8      -0.480500
     19 C12          6.2610     3.4600     3.5490 ca         1 PU8       0.267800
     20 N4           7.5710     3.6090     3.7160 nb         1 PU8      -0.687000
     21 C14          8.2870     4.2840     2.8420 ca         1 PU8       0.692900
     22 N3           7.7560     4.8380     1.7690 nb         1 PU8      -0.745000
     23 N2           5.2610     2.8310     4.2450 na         1 PU8       0.233000
     24 C15          5.4120     2.0910     5.5010 c3         1 PU8      -0.042700
     25 C16          5.8400     0.6550     5.1990 c3         1 PU8      -0.065400
     26 C17          5.9970    -0.1190     6.5100 c3         1 PU8      -0.025400
     27 C18          6.4250    -1.5550     6.2070 c3         1 PU8      -0.001100
     28 Cl           1.8880     2.7020     1.1030 cl         1 PU8       0.029600
     29 H191        -0.3610     0.0940     1.0170 h1         1 PU8      -0.001633
     30 H192        -0.3610    -0.9280    -0.4270 h1         1 PU8      -0.001633
     31 H193        -0.3610     0.8340    -0.5900 h1         1 PU8      -0.001633
     32 H7C1         2.7690    -3.1620    -0.2420 h1         1 PU8      -0.003300
     33 H7C2         3.6390    -1.9640     0.7250 h1         1 PU8      -0.003300
     34 H7C3         3.3850    -3.5960     1.3580 h1         1 PU8      -0.003300
     35 H8C1         2.1940    -1.3920     5.7710 h1         1 PU8       0.007700
     36 H8C2         3.0300    -2.9460     5.8960 h1         1 PU8       0.007700
     37 H8C3         3.8860    -1.5290     5.2740 h1         1 PU8       0.007700
     38 H2           2.9380     0.0090     4.9930 ha         1 PU8       0.143000
     39 H9C1         1.9860     3.2240     3.7120 hc         1 PU8       0.035700
     40 H9C2         2.7400     2.3450     5.0490 hc         1 PU8       0.035700
     41 H5N1         4.9130     5.3910     0.2920 hn         1 PU8       0.276300
     42 H5N2         6.5040     5.7160    -0.3130 hn         1 PU8       0.276300
     43 H14          9.3520     4.3900     3.0110 h5         1 PU8      -0.005900
     44 H151         6.1650     2.5710     6.1150 h1         1 PU8       0.040700
     45 H152         4.4670     2.0820     6.0300 h1         1 PU8       0.040700
     46 H161         6.7850     0.6640     4.6700 hc         1 PU8       0.036700
     47 H162         5.0870     0.1750     4.5850 hc         1 PU8       0.036700
     48 H171         6.7500     0.3610     7.1240 hc         1 PU8       0.013700
     49 H172         5.0520    -0.1280     7.0400 hc         1 PU8       0.013700
     50 H181         6.2240    -1.7790     5.1670 hc         1 PU8       0.006033
     51 H182         7.4850    -1.6640     6.4020 hc         1 PU8       0.006033
     52 H183         5.8700    -2.2380     6.8380 hc         1 PU8       0.006033
@<TRIPOS>BOND
     1     1     2 1   
     2     1    29 1   
     3     1    30 1   
     4     1    31 1   
     5     2     3 1   
     6     3     4 ar  
     7     3     5 ar  
     8     4    12 ar  
     9     4    28 1   
    10     5     6 1   
    11     5     8 ar  
    12     6     7 1   
    13     7    32 1   
    14     7    33 1   
    15     7    34 1   
    16     8     9 1   
    17     8    11 ar  
    18     9    10 1   
    19    10    35 1   
    20    10    36 1   
    21    10    37 1   
    22    11    12 ar  
    23    11    38 1   
    24    12    13 1   
    25    13    14 1   
    26    13    39 1   
    27    13    40 1   
    28    14    15 2   
    29    14    23 1   
    30    15    16 1   
    31    16    17 ar  
    32    16    19 ar  
    33    17    18 1   
    34    17    22 ar  
    35    18    41 1   
    36    18    42 1   
    37    19    20 ar  
    38    19    23 1   
    39    20    21 ar  
    40    21    22 ar  
    41    21    43 1   
    42    23    24 1   
    43    24    25 1   
    44    24    44 1   
    45    24    45 1   
    46    25    26 1   
    47    25    46 1   
    48    25    47 1   
    49    26    27 1   
    50    26    48 1   
    51    26    49 1   
    52    27    50 1   
    53    27    51 1   
    54    27    52 1   
@<TRIPOS>SUBSTRUCTURE
     1 PU8         1 TEMP              0 ****  ****    0 ROOT
