@<TRIPOS>MOLECULE
PU9
   51    53     1     0     0
SMALL
bcc


@<TRIPOS>ATOM
      1 Cl           0.0000     0.0000     0.0000 cl         1 PU9       0.027600
      2 C13          1.7350     0.0000     0.0000 ca         1 PU9      -0.086600
      3 C15          2.4280     0.0000     1.2020 ca         1 PU9       0.129100
      4 O3           1.7490    -0.0010     2.3800 os         1 PU9      -0.303900
      5 C20          1.6010     1.3660     2.7720 c3         1 PU9       0.236700
      6 C17          3.8170    -0.0060     1.2000 ca         1 PU9       0.054100
      7 O2           4.5010    -0.0060     2.3780 os         1 PU9      -0.297900
      8 C19          4.6890    -1.3740     2.7450 c3         1 PU9       0.235700
      9 C16          4.5080    -0.0000    -0.0050 ca         1 PU9       0.127100
     10 O1           5.8670    -0.0020    -0.0120 os         1 PU9      -0.261900
     11 C18          6.2740    -0.0020    -1.3830 c3         1 PU9       0.209700
     12 C14          3.8080    -0.0010    -1.2030 ca         1 PU9      -0.227000
     13 C12          2.4260    -0.0000    -1.1980 ca         1 PU9      -0.042300
     14 C6           1.6700    -0.0000    -2.5010 c3         1 PU9      -0.003400
     15 C5           1.4180    -1.4190    -2.9350 cc         1 PU9       0.220800
     16 N3           0.3700    -2.1230    -2.6160 nd         1 PU9      -0.479100
     17 C2           0.4660    -3.3530    -3.1750 ca         1 PU9      -0.202200
     18 C3          -0.3420    -4.5020    -3.1770 ca         1 PU9       0.596200
     19 N5          -1.5430    -4.5260    -2.4910 nv         1 PU9      -0.590500
     20 C1           1.6740    -3.3900    -3.8900 ca         1 PU9       0.237800
     21 N1           2.0080    -4.5010    -4.5390 nb         1 PU9      -0.638000
     22 C4           1.2190    -5.5540    -4.5130 ca         1 PU9       0.654900
     23 N2           0.0740    -5.5680    -3.8560 nb         1 PU9      -0.683000
     24 N4           2.2490    -2.1550    -3.7250 na         1 PU9       0.224000
     25 C7           3.5240    -1.7100    -4.2930 c3         1 PU9      -0.045700
     26 C8           3.2790    -1.0780    -5.6640 c3         1 PU9      -0.067400
     27 C9           4.6100    -0.6140    -6.2570 c3         1 PU9       0.121700
     28 C10          4.3740    -0.0050    -7.5760 c1         1 PU9      -0.178100
     29 C11          4.1980     0.4670    -8.6370 c1         1 PU9      -0.106500
     30 H201         2.0640     2.0060     2.0310 h1         1 PU9      -0.001633
     31 H202         2.0790     1.5200     3.7320 h1         1 PU9      -0.001633
     32 H203         0.5480     1.6070     2.8500 h1         1 PU9      -0.001633
     33 H191         4.1940    -2.0130     2.0230 h1         1 PU9      -0.002967
     34 H192         5.7480    -1.6010     2.7610 h1         1 PU9      -0.002967
     35 H193         4.2670    -1.5450     3.7280 h1         1 PU9      -0.002967
     36 H181         7.3430     0.1610    -1.4420 h1         1 PU9       0.003700
     37 H182         5.7580     0.7890    -1.9130 h1         1 PU9       0.003700
     38 H183         6.0290    -0.9570    -1.8310 h1         1 PU9       0.003700
     39 H14          4.3440     0.0030    -2.1440 ha         1 PU9       0.141000
     40 H6C1         0.6280     0.2330    -2.3140 hc         1 PU9       0.052200
     41 H6C2         2.0930     0.7440    -3.1640 hc         1 PU9       0.052200
     42 H5N1        -2.2780    -3.8970    -2.7470 hn         1 PU9       0.279300
     43 H5N2        -1.6600    -5.1400    -1.7100 hn         1 PU9       0.279300
     44 H4           1.5010    -6.4550    -5.0460 h5         1 PU9      -0.001900
     45 H7C1         4.2030    -2.5510    -4.3590 h1         1 PU9       0.041700
     46 H7C2         3.9550    -0.9470    -3.6570 h1         1 PU9       0.041700
     47 H8C1         3.1070    -1.8580    -6.3950 hc         1 PU9       0.038700
     48 H8C2         2.4100    -0.4330    -5.6140 hc         1 PU9       0.038700
     49 H9C1         5.0590     0.1250    -5.6040 hc         1 PU9       0.017700
     50 H9C2         5.2770    -1.4620    -6.3560 hc         1 PU9       0.017700
     51 H11          4.0360     0.9200    -9.6080 ha         1 PU9       0.141500
@<TRIPOS>BOND
     1     1     2 1   
     2     2     3 ar  
     3     2    13 ar  
     4     3     4 1   
     5     3     6 ar  
     6     4     5 1   
     7     5    30 1   
     8     5    31 1   
     9     5    32 1   
    10     6     7 1   
    11     6     9 ar  
    12     7     8 1   
    13     8    33 1   
    14     8    34 1   
    15     8    35 1   
    16     9    10 1   
    17     9    12 ar  
    18    10    11 1   
    19    11    36 1   
    20    11    37 1   
    21    11    38 1   
    22    12    13 ar  
    23    12    39 1   
    24    13    14 1   
    25    14    15 1   
    26    14    40 1   
    27    14    41 1   
    28    15    16 2   
    29    15    24 1   
    30    16    17 1   
    31    17    18 ar  
    32    17    20 ar  
    33    18    19 1   
    34    18    23 ar  
    35    19    42 1   
    36    19    43 1   
    37    20    21 ar  
    38    20    24 1   
    39    21    22 ar  
    40    22    23 ar  
    41    22    44 1   
    42    24    25 1   
    43    25    26 1   
    44    25    45 1   
    45    25    46 1   
    46    26    27 1   
    47    26    47 1   
    48    26    48 1   
    49    27    28 1   
    50    27    49 1   
    51    27    50 1   
    52    28    29 3   
    53    29    51 1   
@<TRIPOS>SUBSTRUCTURE
     1 PU9         1 TEMP              0 ****  ****    0 ROOT
