@<TRIPOS>MOLECULE
PUB
   83    86     1     0     0
SMALL
bcc


@<TRIPOS>ATOM
      1 CHC          0.0000     0.0000     0.0000 c3         1 PUB      -0.027700
      2 NC           0.2550     0.0460    -2.4950 nc         1 PUB      -0.620300
      3 C1C         -0.5240     0.0640    -3.5950 cc         1 PUB      -0.058400
      4 C2C         -1.8710     0.0630    -3.1700 cc         1 PUB      -0.024200
      5 C3C         -1.8440     0.0320    -1.8050 cd         1 PUB      -0.326800
      6 C4C         -0.5010     0.0250    -1.4200 cd         1 PUB       0.386600
      7 CMC         -3.0380     0.0140    -0.8860 c3         1 PUB       0.102100
      8 CAC         -3.0950     0.0800    -4.0490 c3         1 PUB       0.043800
      9 CBC         -3.5120     1.5270    -4.3150 c3         1 PUB      -0.130400
     10 CGC         -4.7360     1.5460    -5.1930 c          1 PUB       0.983600
     11 O1C         -5.2250     0.5070    -5.5680 o          1 PUB      -0.903800
     12 O2C         -5.2830     2.7150    -5.5580 o          1 PUB      -0.903800
     13 ND           2.0370     1.2330    -0.6150 ns         1 PUB      -0.175900
     14 C1D          1.5310     0.0000     0.0000 c3         1 PUB       0.050900
     15 C2D          2.0510     0.0000     1.4190 c2         1 PUB      -0.115400
     16 C3D          2.7650     1.1120     1.5690 ce         1 PUB      -0.213400
     17 C4D          2.7620     1.8780     0.3180 c          1 PUB       0.620700
     18 CMD          1.8070    -1.0570     2.4650 c3         1 PUB       0.082100
     19 CBD          4.8950     0.9600     2.8290 c3         1 PUB       0.003900
     20 OD           3.3290     2.9410     0.1490 o          1 PUB      -0.702500
     21 NA           4.3880    -2.0790    -3.1980 ns         1 PUB      -0.188900
     22 C1A          5.0880    -2.4810    -2.1210 c          1 PUB       0.624700
     23 C2A          6.4880    -2.0620    -2.2480 ce         1 PUB      -0.200400
     24 C3A          6.6580    -1.4060    -3.3910 c2         1 PUB      -0.121400
     25 C4A          5.3160    -1.3650    -4.0830 c3         1 PUB       0.045900
     26 CAA          7.9470    -0.8100    -3.8980 c3         1 PUB       0.045800
     27 CAD          3.4730     1.5230     2.8340 c3         1 PUB       0.057800
     28 NB           2.3180     0.0780    -4.2680 na         1 PUB       0.432900
     29 C1B          3.4940     0.0910    -4.9240 cc         1 PUB      -0.333600
     30 C2B          3.2610     0.1210    -6.2640 cd         1 PUB      -0.185300
     31 C3B          1.8840     0.1200    -6.4590 cd         1 PUB      -0.028300
     32 C4B          1.2950     0.0960    -5.1960 cd         1 PUB      -0.362100
     33 CHB         -0.0770     0.0900    -4.9210 cf         1 PUB       0.217800
     34 CGB          0.2040     1.6170    -9.5310 c          1 PUB       0.983600
     35 O1B         -0.0820     0.5800   -10.0820 o          1 PUB      -0.902300
     36 O2B         -0.1170     2.7890   -10.0990 o          1 PUB      -0.902300
     37 HHC1        -0.3610     0.8750     0.5260 hc         1 PUB       0.025700
     38 HHC2        -0.3610    -0.8930     0.4950 hc         1 PUB       0.025700
     39 HMC1        -3.8370    -0.5570    -1.3420 hc         1 PUB      -0.002633
     40 HMC2        -2.7610    -0.4420     0.0570 hc         1 PUB      -0.002633
     41 HMC3        -3.3740     1.0290    -0.7110 hc         1 PUB      -0.002633
     42 HAC1        -2.8710    -0.4090    -4.9890 hc         1 PUB       0.028700
     43 HAC2        -3.9030    -0.4430    -3.5530 hc         1 PUB       0.028700
     44 HBC1        -2.7040     2.0510    -4.8110 hc         1 PUB       0.010700
     45 HBC2        -3.7350     2.0170    -3.3740 hc         1 PUB       0.010700
     46 HND          1.8740     1.5380    -1.5540 hn         1 PUB       0.227500
     47 H1D1         1.9090    -0.8630    -0.5340 h1         1 PUB       0.054700
     48 HMD1         1.1160    -0.6770     3.2080 hc         1 PUB       0.009033
     49 HMD2         1.3860    -1.9380     1.9970 hc         1 PUB       0.009033
     50 HMD3         2.7440    -1.3150     2.9430 hc         1 PUB       0.009033
     51 HBD1         5.3190     1.0390     3.8230 hc         1 PUB       0.001033
     52 HBD2         5.5030     1.5230     2.1310 hc         1 PUB       0.001033
     53 HBD3         4.8700    -0.0810     2.5290 hc         1 PUB       0.001033
     54 HNA          3.4130    -2.2350    -3.3630 hn         1 PUB       0.216500
     55 H4A1         5.3780    -1.8710    -5.0390 h1         1 PUB       0.052700
     56 HMA1         8.2970    -3.0160    -1.6570 hc         1 PUB       0.008367
     57 HMA2         8.0570    -1.4040    -0.9690 hc         1 PUB       0.008367
     58 HMA3         7.1300    -2.7770    -0.3490 hc         1 PUB       0.008367
     59 HBA1         8.7470    -1.5150    -5.7650 hc         1 PUB       0.003367
     60 HBA2         9.6980    -1.9740    -4.3450 hc         1 PUB       0.003367
     61 HBA3         8.1700    -2.7960    -4.6900 hc         1 PUB       0.003367
     62 HAA1         7.7280     0.0560    -4.5100 hc         1 PUB       0.021700
     63 HAA2         8.5620    -0.5130    -3.0580 hc         1 PUB       0.021700
     64 HAD1         2.9350     1.1370     3.6910 hc         1 PUB       0.015200
     65 HAD2         3.5130     2.6040     2.8910 hc         1 PUB       0.015200
     66 HNB          2.2040     0.0590    -3.2740 hn         1 PUB       0.150700
     67 HHB1        -0.7940     0.1030    -5.7330 ha         1 PUB       0.149000
     68 HAB1         0.2170    -0.3700    -7.6900 hc         1 PUB       0.030700
     69 HAB2         1.7720    -0.3530    -8.5320 hc         1 PUB       0.030700
     70 HBB1         1.8710     2.1060    -8.3000 hc         1 PUB       0.011200
     71 HBB2         0.3160     2.0890    -7.4580 hc         1 PUB       0.011200
     72 CMB          4.3110     0.1440    -7.3450 c3         1 PUB       0.098200
     73 CHA          4.8540     0.0810    -4.2750 c3         1 PUB       0.066900
     74 CMA          7.5690    -2.3340    -1.2340 c3         1 PUB       0.086100
     75 HHA1         5.5600     0.6040    -4.9090 hc         1 PUB       0.030700
     76 CBA          8.6950    -1.8500    -4.7360 c3         1 PUB       0.004900
     77 HHA2         4.7990     0.5730    -3.3120 hc         1 PUB       0.030700
     78 HMB1         4.6500    -0.8660    -7.5410 hc         1 PUB       0.002033
     79 HMB2         3.8880     0.5640    -8.2500 hc         1 PUB       0.002033
     80 HMB3         5.1480     0.7500    -7.0230 hc         1 PUB       0.002033
     81 CAB          1.1660     0.1440    -7.7840 c3         1 PUB       0.051900
     82 OA           4.6280    -3.1000    -1.1810 o          1 PUB      -0.690500
     83 CBB          0.9220     1.5930    -8.2060 c3         1 PUB      -0.132400
@<TRIPOS>BOND
     1     1     6 1   
     2     1    14 1   
     3     1    37 1   
     4     1    38 1   
     5     2     3 1   
     6     2     6 2   
     7     3     4 1   
     8     3    33 2   
     9     4     5 2   
    10     4     8 1   
    11     5     6 1   
    12     5     7 1   
    13     7    39 1   
    14     7    40 1   
    15     7    41 1   
    16     8     9 1   
    17     8    42 1   
    18     8    43 1   
    19     9    10 1   
    20     9    44 1   
    21     9    45 1   
    22    10    11 1   
    23    10    12 1   
    24    13    14 1   
    25    13    17 1   
    26    13    46 1   
    27    14    15 1   
    28    14    47 1   
    29    15    16 2   
    30    15    18 1   
    31    16    17 1   
    32    16    27 1   
    33    17    20 2   
    34    18    48 1   
    35    18    49 1   
    36    18    50 1   
    37    19    27 1   
    38    19    51 1   
    39    19    52 1   
    40    19    53 1   
    41    21    22 1   
    42    21    25 1   
    43    21    54 1   
    44    22    23 1   
    45    22    82 2   
    46    23    24 2   
    47    23    74 1   
    48    24    25 1   
    49    24    26 1   
    50    25    55 1   
    51    25    73 1   
    52    26    62 1   
    53    26    63 1   
    54    26    76 1   
    55    27    64 1   
    56    27    65 1   
    57    28    29 1   
    58    28    32 1   
    59    28    66 1   
    60    29    30 2   
    61    29    73 1   
    62    30    31 1   
    63    30    72 1   
    64    31    32 2   
    65    31    81 1   
    66    32    33 1   
    67    33    67 1   
    68    34    35 1   
    69    34    36 1   
    70    34    83 1   
    71    56    74 1   
    72    57    74 1   
    73    58    74 1   
    74    59    76 1   
    75    60    76 1   
    76    61    76 1   
    77    68    81 1   
    78    69    81 1   
    79    70    83 1   
    80    71    83 1   
    81    72    78 1   
    82    72    79 1   
    83    72    80 1   
    84    73    75 1   
    85    73    77 1   
    86    81    83 1   
@<TRIPOS>SUBSTRUCTURE
     1 PUB         1 TEMP              0 ****  ****    0 ROOT
