@<TRIPOS>MOLECULE
molecule
   83    86     1     0     0
SMALL
bcc


@<TRIPOS>ATOM
      1 CHC          0.0000     0.0000     0.0000 c3         1 PUB      -0.087700
      2 NC           0.2550     0.0460    -2.4950 nc         1 PUB      -0.688300
      3 C1C         -0.5240     0.0640    -3.5950 cc         1 PUB      -0.001400
      4 C2C         -1.8710     0.0630    -3.1700 cc         1 PUB      -0.039200
      5 C3C         -1.8440     0.0320    -1.8050 cd         1 PUB      -0.313800
      6 C4C         -0.5010     0.0250    -1.4200 cd         1 PUB       0.419600
      7 CMC         -3.0380     0.0140    -0.8860 c3         1 PUB      -0.010900
      8 CAC         -3.0950     0.0800    -4.0490 c3         1 PUB      -0.018200
      9 CBC         -3.5120     1.5270    -4.3150 c3         1 PUB      -0.176400
     10 CGC         -4.7360     1.5460    -5.1930 c          1 PUB       0.894600
     11 O1C         -5.2250     0.5070    -5.5680 o          1 PUB      -0.855300
     12 O2C         -5.2830     2.7150    -5.5580 o          1 PUB      -0.855300
     13 ND           2.0370     1.2330    -0.6150 ns         1 PUB      -0.561900
     14 C1D          1.5310     0.0000     0.0000 c3         1 PUB       0.134900
     15 C2D          2.0510     0.0000     1.4190 c2         1 PUB      -0.105400
     16 C3D          2.7650     1.1120     1.5690 ce         1 PUB      -0.199400
     17 C4D          2.7620     1.8780     0.3180 c          1 PUB       0.695700
     18 CMD          1.8070    -1.0570     2.4650 c3         1 PUB      -0.033900
     19 CBD          4.8950     0.9600     2.8290 c3         1 PUB      -0.088100
     20 OD           3.3290     2.9410     0.1490 o          1 PUB      -0.659500
     21 NA           4.3880    -2.0790    -3.1980 ns         1 PUB      -0.574900
     22 C1A          5.0880    -2.4810    -2.1210 c          1 PUB       0.698700
     23 C2A          6.4880    -2.0620    -2.2480 ce         1 PUB      -0.190400
     24 C3A          6.6580    -1.4060    -3.3910 c2         1 PUB      -0.109400
     25 C4A          5.3160    -1.3650    -4.0830 c3         1 PUB       0.128900
     26 CAA          7.9470    -0.8100    -3.8980 c3         1 PUB      -0.026200
     27 CAD          3.4730     1.5230     2.8340 c3         1 PUB      -0.014200
     28 NB           2.3180     0.0780    -4.2680 na         1 PUB      -0.126100
     29 C1B          3.4940     0.0910    -4.9240 cc         1 PUB      -0.111600
     30 C2B          3.2610     0.1210    -6.2640 cd         1 PUB      -0.184300
     31 C3B          1.8840     0.1200    -6.4590 cd         1 PUB      -0.037300
     32 C4B          1.2950     0.0960    -5.1960 cd         1 PUB      -0.157100
     33 CHB         -0.0770     0.0900    -4.9210 cf         1 PUB       0.135800
     34 CGB          0.2040     1.6170    -9.5310 c          1 PUB       0.894600
     35 O1B         -0.0820     0.5800   -10.0820 o          1 PUB      -0.852300
     36 O2B         -0.1170     2.7890   -10.0990 o          1 PUB      -0.852300
     37 HHC1        -0.3610     0.8750     0.5260 hc         1 PUB       0.057200
     38 HHC2        -0.3610    -0.8930     0.4950 hc         1 PUB       0.057200
     39 HMC1        -2.7640    -0.4530     0.0530 hc         1 PUB       0.029033
     40 HMC2        -3.3670     1.0300    -0.7010 hc         1 PUB       0.029033
     41 HMC3        -3.8410    -0.5470    -1.3470 hc         1 PUB       0.029033
     42 HAC1        -2.8710    -0.4090    -4.9890 hc         1 PUB       0.055700
     43 HAC2        -3.9030    -0.4430    -3.5530 hc         1 PUB       0.055700
     44 HBC1        -3.7350     2.0170    -3.3740 hc         1 PUB       0.035200
     45 HBC2        -2.7040     2.0510    -4.8110 hc         1 PUB       0.035200
     46 HND          1.8740     1.5380    -1.5540 hn         1 PUB       0.373500
     47 H1D1         1.9090    -0.8630    -0.5340 h1         1 PUB       0.084700
     48 HMD1         1.3330    -1.9160     2.0070 hc         1 PUB       0.046033
     49 HMD2         1.1620    -0.6570     3.2380 hc         1 PUB       0.046033
     50 HMD3         2.7520    -1.3570     2.9030 hc         1 PUB       0.046033
     51 HBD1         5.4900     1.4880     2.0930 hc         1 PUB       0.033033
     52 HBD2         4.8650    -0.0940     2.5800 hc         1 PUB       0.033033
     53 HBD3         5.3380     1.0870     3.8090 hc         1 PUB       0.033033
     54 HNA          3.4130    -2.2350    -3.3630 hn         1 PUB       0.366500
     55 H4A1         5.3780    -1.8710    -5.0390 h1         1 PUB       0.079700
     56 HMA1         8.3100    -2.9970    -1.6650 hc         1 PUB       0.044367
     57 HMA2         8.0410    -1.4010    -0.9500 hc         1 PUB       0.044367
     58 HMA3         7.1340    -2.8000    -0.3590 hc         1 PUB       0.044367
     59 HBA1         8.7210    -1.5290    -5.7700 hc         1 PUB       0.036700
     60 HBA2         8.1860    -2.8040    -4.6660 hc         1 PUB       0.036700
     61 HBA3         9.7070    -1.9520    -4.3640 hc         1 PUB       0.036700
     62 HAA1         7.7280     0.0560    -4.5100 hc         1 PUB       0.053200
     63 HAA2         8.5620    -0.5130    -3.0580 hc         1 PUB       0.053200
     64 HAD1         2.9350     1.1370     3.6910 hc         1 PUB       0.046700
     65 HAD2         3.5130     2.6040     2.8910 hc         1 PUB       0.046700
     66 HNB          2.2040     0.0590    -3.2740 hn         1 PUB       0.328700
     67 HHB1        -0.7940     0.1030    -5.7330 ha         1 PUB       0.192000
     68 HAB1         1.7720    -0.3530    -8.5320 hc         1 PUB       0.059200
     69 HAB2         0.2170    -0.3700    -7.6900 hc         1 PUB       0.059200
     70 HBB1         0.3160     2.0890    -7.4580 hc         1 PUB       0.036200
     71 HBB2         1.8710     2.1060    -8.3000 hc         1 PUB       0.036200
     72 CMB          4.3110     0.1440    -7.3450 c3         1 PUB      -0.012800
     73 CHA          4.8540     0.0810    -4.2750 c3         1 PUB      -0.013100
     74 CMA          7.5690    -2.3340    -1.2340 c3         1 PUB      -0.026900
     75 HHA1         4.7990     0.5730    -3.3120 hc         1 PUB       0.064200
     76 CBA          8.6950    -1.8500    -4.7360 c3         1 PUB      -0.090100
     77 HHA2         5.5600     0.6040    -4.9090 hc         1 PUB       0.064200
     78 HMB1         4.6750    -0.8620    -7.5160 hc         1 PUB       0.034367
     79 HMB2         3.8780     0.5320    -8.2600 hc         1 PUB       0.034367
     80 HMB3         5.1330     0.7780    -7.0370 hc         1 PUB       0.034367
     81 CAB          1.1660     0.1440    -7.7840 c3         1 PUB      -0.011100
     82 OA           4.6280    -3.1000    -1.1810 o          1 PUB      -0.649500
     83 CBB          0.9220     1.5930    -8.2060 c3         1 PUB      -0.179400
@<TRIPOS>BOND
     1     1     6 1
     2     1    14 1
     3     1    37 1
     4     1    38 1
     5     2     3 1
     6     2     6 2
     7     3     4 1
     8     3    33 2
     9     4     5 2
    10     4     8 1
    11     5     6 1
    12     5     7 1
    13     7    39 1
    14     7    40 1
    15     7    41 1
    16     8     9 1
    17     8    42 1
    18     8    43 1
    19     9    10 1
    20     9    44 1
    21     9    45 1
    22    10    11 1
    23    10    12 1
    24    13    14 1
    25    13    17 1
    26    13    46 1
    27    14    15 1
    28    14    47 1
    29    15    16 2
    30    15    18 1
    31    16    17 1
    32    16    27 1
    33    17    20 2
    34    18    48 1
    35    18    49 1
    36    18    50 1
    37    19    27 1
    38    19    51 1
    39    19    52 1
    40    19    53 1
    41    21    22 1
    42    21    25 1
    43    21    54 1
    44    22    23 1
    45    22    82 2
    46    23    24 2
    47    23    74 1
    48    24    25 1
    49    24    26 1
    50    25    73 1
    51    25    55 1
    52    74    56 1
    53    74    57 1
    54    74    58 1
    55    76    26 1
    56    76    59 1
    57    76    60 1
    58    76    61 1
    59    73    29 1
    60    73    75 1
    61    73    77 1
    62    26    62 1
    63    26    63 1
    64    27    64 1
    65    27    65 1
    66    28    29 1
    67    28    32 1
    68    28    66 1
    69    29    30 2
    70    30    31 1
    71    30    72 1
    72    31    32 2
    73    31    81 1
    74    32    33 1
    75    33    67 1
    76    72    78 1
    77    72    79 1
    78    72    80 1
    79    81    83 1
    80    81    68 1
    81    81    69 1
    82    83    34 1
    83    83    70 1
    84    83    71 1
    85    34    35 1
    86    34    36 1
@<TRIPOS>SUBSTRUCTURE
     1 PUB         1 TEMP              0 ****  ****    0 ROOT
