@<TRIPOS>MOLECULE
PUC
   58    59     1     0     0
SMALL
bcc


@<TRIPOS>ATOM
      1 C1          1.0830   -0.2540   -0.0260 c         1 PUC      0.908600
      2 O1          1.6620   -1.3780    0.0190 o         1 PUC     -0.851800
      3 C2          0.1480    0.1380    1.1320 c3        1 PUC     -0.196400
      4 O2          1.2110    0.5670   -0.9800 o         1 PUC     -0.851800
      5 C3          0.7730   -0.1730    2.4700 c3        1 PUC     -0.064400
      6 O3         -0.1810   -1.4390    9.3930 oh        1 PUC     -0.589800
      7 C4         -0.2040    0.0400    3.6090 c3        1 PUC     -0.060200
      8 C5          0.3970   -0.2430    4.9340 c2        1 PUC     -0.131200
      9 O5         -4.5010    2.2990    7.2350 os        1 PUC     -0.429600
     10 C6         -0.2570   -0.1980    6.1000 c2        1 PUC     -0.231200
     11 C7         -1.7000    0.1250    6.2330 c3        1 PUC     -0.037200
     12 C8         -2.0300    0.7750    7.5640 c3        1 PUC     -0.059700
     13 C9         -2.1410    2.3200    7.5100 c3        1 PUC     -0.093700
     14 C10        -2.8460    2.5960    8.8680 c3        1 PUC     -0.118400
     15 C11        -4.0740    1.7250    8.4900 c3        1 PUC      0.128100
     16 C12        -3.4070    0.3520    8.1560 c3        1 PUC     -0.070500
     17 C13        -3.3800   -0.4990    9.3680 c2        1 PUC     -0.122200
     18 C14        -2.5650   -1.4960    9.7170 c2        1 PUC     -0.219200
     19 C15        -1.3960   -2.0370    8.9600 c3        1 PUC      0.164300
     20 C16        -1.3360   -3.5630    9.0500 c3        1 PUC     -0.108400
     21 C17        -0.8590   -4.0770   10.3910 c3        1 PUC     -0.082400
     22 C18        -0.9350   -5.5880   10.4520 c3        1 PUC     -0.078400
     23 C19        -0.4340   -6.1110   11.7810 c3        1 PUC     -0.080400
     24 C20        -0.5100   -7.6150   11.8480 c3        1 PUC     -0.092100
     25 C21        -3.2900    2.7150    6.5530 c3        1 PUC      0.117400
     26 H12        -0.0970    1.2270    1.0590 hc        1 PUC      0.019200
     27 H22        -0.8050   -0.4380    1.0120 hc        1 PUC      0.019200
     28 H13         1.6730    0.4790    2.6220 hc        1 PUC      0.046200
     29 H23         1.1330   -1.2370    2.4600 hc        1 PUC      0.046200
     30 H14        -1.1020   -0.6200    3.4580 hc        1 PUC      0.038200
     31 H24        -0.5760    1.1010    3.5880 hc        1 PUC      0.038200
     32 H15         1.4680   -0.5130    4.9180 ha        1 PUC      0.124000
     33 H16         0.2680   -0.4310    7.0430 ha        1 PUC      0.125000
     34 H17        -2.0120    0.7840    5.3790 hc        1 PUC      0.048200
     35 H27        -2.2890   -0.8280    6.1220 hc        1 PUC      0.048200
     36 H18        -1.2280    0.5140    8.3100 hc        1 PUC      0.076700
     37 H19        -1.1850    2.8390    7.3220 hc        1 PUC      0.087700
     38 H110       -2.2850    2.2080    9.7430 hc        1 PUC      0.058200
     39 H210       -3.1050    3.6660    9.0170 hc        1 PUC      0.058200
     40 H111       -4.9470    1.7040    9.1680 h1        1 PUC      0.082700
     41 H112       -4.0200   -0.1640    7.3670 hc        1 PUC      0.082700
     42 H113       -4.2070   -0.2610   10.0680 ha        1 PUC      0.107000
     43 H114       -2.7460   -2.0090   10.6790 ha        1 PUC      0.111000
     44 H115       -1.4540   -1.7480    7.8680 h1        1 PUC      0.099700
     45 H116       -2.3570   -3.9700    8.8280 hc        1 PUC      0.054200
     46 H216       -0.6390   -3.9320    8.2520 hc        1 PUC      0.054200
     47 H117        0.2020   -3.7510   10.5610 hc        1 PUC      0.037700
     48 H217       -1.4780   -3.6370   11.2160 hc        1 PUC      0.037700
     49 H118       -0.3250   -6.0280    9.6200 hc        1 PUC      0.042200
     50 H218       -1.9960   -5.9180   10.2940 hc        1 PUC      0.042200
     51 H119        0.6270   -5.7810   11.9360 hc        1 PUC      0.036700
     52 H219       -1.0420   -5.6660   12.6120 hc        1 PUC      0.036700
     53 H120        0.1100   -8.0760   11.0410 hc        1 PUC      0.031367
     54 H220       -1.5640   -7.9620   11.7200 hc        1 PUC      0.031367
     55 H320       -0.1360   -7.9800   12.8340 hc        1 PUC      0.031367
     56 H121       -3.2730    2.2030    5.5640 h1        1 PUC      0.053700
     57 H221       -3.3500    3.8220    6.4160 h1        1 PUC      0.053700
     58 H2O3       -0.1120   -1.5860   10.3440 ho        1 PUC      0.391000
@<TRIPOS>BOND
     1    1    2 1   
     2    1    3 1   
     3    1    4 1   
     4    3    5 1   
     5    3   26 1   
     6    3   27 1   
     7    5    7 1   
     8    5   28 1   
     9    5   29 1   
    10    6   19 1   
    11    6   58 1   
    12    7    8 1   
    13    7   30 1   
    14    7   31 1   
    15    8   10 2   
    16    8   32 1   
    17    9   15 1   
    18    9   25 1   
    19   10   11 1   
    20   10   33 1   
    21   11   12 1   
    22   11   34 1   
    23   11   35 1   
    24   12   13 1   
    25   12   16 1   
    26   12   36 1   
    27   13   14 1   
    28   13   25 1   
    29   13   37 1   
    30   14   15 1   
    31   14   38 1   
    32   14   39 1   
    33   15   16 1   
    34   15   40 1   
    35   16   17 1   
    36   16   41 1   
    37   17   18 2   
    38   17   42 1   
    39   18   19 1   
    40   18   43 1   
    41   19   20 1   
    42   19   44 1   
    43   20   21 1   
    44   20   45 1   
    45   20   46 1   
    46   21   22 1   
    47   21   47 1   
    48   21   48 1   
    49   22   23 1   
    50   22   49 1   
    51   22   50 1   
    52   23   24 1   
    53   23   51 1   
    54   23   52 1   
    55   24   53 1   
    56   24   54 1   
    57   24   55 1   
    58   25   56 1   
    59   25   57 1   
@<TRIPOS>SUBSTRUCTURE
     1 PUC         1 TEMP              0 ****  ****    0 ROOT
