@<TRIPOS>MOLECULE
molecule
   58    59     1     0     0
SMALL
bcc


@<TRIPOS>ATOM
      1 C1           0.0000     0.0000     0.0000 c          1 PUC       0.892600
      2 O1           1.2080     0.0000     0.0000 o          1 PUC      -0.846300
      3 C2          -0.7540     0.0000     1.3050 c3         1 PUC      -0.187400
      4 O2          -0.6710     0.0060    -1.1630 o          1 PUC      -0.846300
      5 C3           0.2400    -0.0000     2.4680 c3         1 PUC      -0.015400
      6 O3          -0.8660    -1.5880    10.8700 oh         1 PUC      -0.611800
      7 C4          -0.5250    -0.0010     3.7930 c3         1 PUC      -0.133200
      8 C5           0.4540    -0.0000     4.9390 c2         1 PUC      -0.339200
      9 O5          -4.1870     1.2710     6.4470 os         1 PUC      -0.417600
     10 C6           0.3570     0.9030     5.8830 c2         1 PUC      -0.370200
     11 C7          -0.8380     1.8200     5.9280 c3         1 PUC      -0.151200
     12 C8          -1.4940     1.7320     7.3080 c3         1 PUC      -0.017700
     13 C9          -2.6340     2.7920     7.4410 c3         1 PUC      -0.119700
     14 C10         -3.5340     2.1060     8.5330 c3         1 PUC      -0.120400
     15 C11         -3.7150     0.7730     7.7270 c3         1 PUC       0.135100
     16 C12         -2.2260     0.3790     7.4760 c3         1 PUC      -0.059500
     17 C13         -1.6750    -0.3740     8.6580 c2         1 PUC      -0.149200
     18 C14         -1.1360    -1.5570     8.4880 c2         1 PUC      -0.189200
     19 C15         -0.5830    -2.3100     9.6700 c3         1 PUC       0.181300
     20 C16         -1.2340    -3.6940     9.7420 c3         1 PUC      -0.083400
     21 C17         -0.5840    -4.5050    10.8650 c3         1 PUC      -0.083400
     22 C18         -1.2340    -5.8880    10.9370 c3         1 PUC      -0.081400
     23 C19         -0.5860    -6.6990    12.0600 c3         1 PUC      -0.084400
     24 C20         -1.2360    -8.0820    12.1320 c3         1 PUC      -0.092100
     25 C21         -3.5300     2.5270     6.1910 c3         1 PUC       0.121400
     26 H12         -1.3770    -0.8850     1.3620 hc         1 PUC       0.029200
     27 H22         -1.3770     0.8850     1.3620 hc         1 PUC       0.029200
     28 H13          0.8630    -0.8840     2.4100 hc         1 PUC       0.065200
     29 H23          0.8630     0.8850     2.4110 hc         1 PUC       0.065200
     30 H14         -1.1490     0.8830     3.8500 hc         1 PUC       0.028200
     31 H24         -1.1480    -0.8860     3.8500 hc         1 PUC       0.028200
     32 H15         -0.5070    -0.4920     5.0350 ha         1 PUC       0.330000
     33 H16          0.3360     1.8100     5.2900 ha         1 PUC       0.312000
     34 H17         -0.5190     2.8390     5.7440 hc         1 PUC       0.038700
     35 H27         -1.5510     1.5220     5.1700 hc         1 PUC       0.038700
     36 H18         -0.7570     1.8660     8.0910 hc         1 PUC       0.077700
     37 H19         -2.3390     3.8180     7.6280 hc         1 PUC       0.082700
     38 H110        -3.0010     1.9520     9.4630 hc         1 PUC       0.058200
     39 H210        -4.4740     2.6280     8.6720 hc         1 PUC       0.058200
     40 H111        -4.3310     0.0190     8.2010 h1         1 PUC       0.100700
     41 H112        -2.1390    -0.2130     6.5740 hc         1 PUC       0.064700
     42 H113        -1.7220     0.0620     9.6490 ha         1 PUC       0.137000
     43 H114        -1.0880    -1.9930     7.4970 ha         1 PUC       0.135000
     44 H115         0.4890    -2.4200     9.5590 h1         1 PUC       0.045700
     45 H116        -2.2930    -3.5850     9.9410 hc         1 PUC       0.053700
     46 H216        -1.0950    -4.2080     8.7980 hc         1 PUC       0.053700
     47 H117         0.4750    -4.6130    10.6660 hc         1 PUC       0.042700
     48 H217        -0.7240    -3.9910    11.8090 hc         1 PUC       0.042700
     49 H118        -2.2930    -5.7790    11.1350 hc         1 PUC       0.041700
     50 H218        -1.0940    -6.4020     9.9930 hc         1 PUC       0.041700
     51 H119        -0.7250    -6.1850    13.0030 hc         1 PUC       0.039200
     52 H219         0.4740    -6.8080    11.8610 hc         1 PUC       0.039200
     53 H120        -1.0960    -8.5960    11.1890 hc         1 PUC       0.031033
     54 H220        -0.7760    -8.6560    12.9280 hc         1 PUC       0.031033
     55 H320        -2.2950    -7.9730    12.3320 hc         1 PUC       0.031033
     56 H121        -2.9190     2.4560     5.2990 h1         1 PUC       0.049200
     57 H221        -4.2630     3.3180     6.0810 h1         1 PUC       0.049200
     58 H2O3        -0.0630    -1.2520    11.2320 ho         1 PUC       0.400000
@<TRIPOS>BOND
     1     1     2 1
     2     1     3 1
     3     1     4 1
     4     3     5 1
     5     3    26 1
     6     3    27 1
     7     5     7 1
     8     5    28 1
     9     5    29 1
    10     6    19 1
    11     6    58 1
    12     7     8 1
    13     7    30 1
    14     7    31 1
    15     8    10 2
    16     8    32 1
    17     9    15 1
    18     9    25 1
    19    10    11 1
    20    10    33 1
    21    11    12 1
    22    11    34 1
    23    11    35 1
    24    12    13 1
    25    12    16 1
    26    12    36 1
    27    13    14 1
    28    13    25 1
    29    13    37 1
    30    14    15 1
    31    14    38 1
    32    14    39 1
    33    15    16 1
    34    15    40 1
    35    16    17 1
    36    16    41 1
    37    17    18 2
    38    17    42 1
    39    18    19 1
    40    18    43 1
    41    19    20 1
    42    19    44 1
    43    20    21 1
    44    20    45 1
    45    20    46 1
    46    21    22 1
    47    21    47 1
    48    21    48 1
    49    22    23 1
    50    22    49 1
    51    22    50 1
    52    23    24 1
    53    23    51 1
    54    23    52 1
    55    24    53 1
    56    24    54 1
    57    24    55 1
    58    25    56 1
    59    25    57 1
@<TRIPOS>SUBSTRUCTURE
     1 PUC         1 TEMP              0 ****  ****    0 ROOT
