@<TRIPOS>MOLECULE
molecule
   23    22     1     0     0
SMALL
bcc


@<TRIPOS>ATOM
      1 C4           1.5300     0.0000     0.0000 c3         1 PUD       0.158100
      2 C2          -0.5010     0.0000    -1.4210 c          1 PUD       0.525100
      3 C6           3.5700     0.0010     1.4430 c3         1 PUD      -0.126100
      4 C5           2.0400     0.0000     1.4420 c3         1 PUD       0.131100
      5 C1          -0.4350     1.2610    -2.2430 c3         1 PUD       0.040400
      6 O1          -0.9670     1.0090    -3.5450 oh         1 PUD      -0.587800
      7 O2          -0.9580    -1.0100    -1.9000 o          1 PUD      -0.464100
      8 C3           0.0000     0.0000     0.0000 c3         1 PUD       0.056100
      9 O3          -0.4750    -1.1670     0.6730 oh         1 PUD      -0.551800
     10 O4           2.0060     1.1680    -0.6730 oh         1 PUD      -0.611800
     11 O5           1.5640    -1.1670     2.1160 oh         1 PUD      -0.581800
     12 H1           1.8910    -0.8840    -0.5110 h1         1 PUD       0.070700
     13 H2           3.9310     0.9560     1.0810 hc         1 PUD       0.043700
     14 H3           3.9310    -0.1630     2.4510 hc         1 PUD       0.043700
     15 H4           3.9310    -0.7900     0.7970 hc         1 PUD       0.043700
     16 H5           1.6790     0.8840     1.9530 h1         1 PUD       0.036700
     17 H6           0.5960     1.5810    -2.3300 h1         1 PUD       0.048700
     18 H7          -1.0150     2.0380    -1.7600 h1         1 PUD       0.048700
     19 H8          -0.9280     1.7990    -4.0590 ho         1 PUD       0.403000
     20 H9          -0.3620     0.8840     0.5110 h1         1 PUD       0.050700
     21 H10         -1.3160    -0.9870     1.0600 ho         1 PUD       0.406000
     22 H11          2.7130     0.9320    -1.2500 ho         1 PUD       0.416000
     23 H12          1.6400    -1.0450     3.0480 ho         1 PUD       0.401000
@<TRIPOS>BOND
     1     7     2 2
     2     9     8 1
     3     2     5 1
     4     2     8 1
     5     6     5 1
     6     8     1 1
     7     1    10 1
     8     1     4 1
     9    11     4 1
    10     4     3 1
    11     1    12 1
    12     3    13 1
    13     3    14 1
    14     3    15 1
    15     4    16 1
    16     5    17 1
    17     5    18 1
    18     6    19 1
    19     8    20 1
    20     9    21 1
    21    10    22 1
    22    11    23 1
@<TRIPOS>SUBSTRUCTURE
     1 PUD         1 TEMP              0 ****  ****    0 ROOT
