@<TRIPOS>MOLECULE
molecule
   23    23     1     0     0
SMALL
bcc


@<TRIPOS>ATOM
      1 C1           1.5300     0.0000     0.0000 c3         1 PUF       0.127400
      2 O1           2.0060     1.1390     0.7200 oh         1 PUF      -0.603800
      3 C2           0.0000     0.0000     0.0000 c3         1 PUF       0.333600
      4 O2          -0.4970     0.0000     1.3390 oh         1 PUF      -0.579800
      5 C3          -0.5380    -1.2240    -0.7730 c3         1 PUF       0.121100
      6 O3          -0.9000    -2.2690     0.1320 oh         1 PUF      -0.545800
      7 C4          -1.7880    -0.6860    -1.5060 c3         1 PUF       0.099100
      8 O4          -2.9590    -1.3820    -1.0750 oh         1 PUF      -0.565800
      9 C5          -1.8570     0.7990    -1.0880 c3         1 PUF       0.123100
     10 O5          -0.5020     1.1440    -0.7250 os         1 PUF      -0.416600
     11 C6          -2.3320     1.6600    -2.2610 c3         1 PUF      -0.089100
     12 H1           1.8910     0.0410    -1.0210 h1         1 PUF       0.036700
     13 H2           1.8910    -0.9040     0.4750 h1         1 PUF       0.036700
     14 H3           2.9470     1.1720     0.6700 ho         1 PUF       0.408000
     15 H4          -0.2370     0.7960     1.7720 ho         1 PUF       0.422000
     16 H5           0.1980    -1.5720    -1.4890 h1         1 PUF       0.043700
     17 H6          -0.5520    -3.0890    -0.1790 ho         1 PUF       0.393000
     18 H7          -1.6620    -0.7710    -2.5790 h1         1 PUF       0.041700
     19 H8          -3.3360    -1.8460    -1.8040 ho         1 PUF       0.397000
     20 H9          -2.5150     0.9180    -0.2360 h1         1 PUF       0.082700
     21 H10         -1.6010     1.6180    -3.0590 hc         1 PUF       0.045367
     22 H11         -3.2820     1.2860    -2.6220 hc         1 PUF       0.045367
     23 H12         -2.4490     2.6860    -1.9320 hc         1 PUF       0.045367
@<TRIPOS>BOND
     1     1     2 1
     2     1     3 1
     3    10     3 1
     4    10     9 1
     5    11     9 1
     6     4     3 1
     7     3     5 1
     8     9     7 1
     9     5     7 1
    10     5     6 1
    11     7     8 1
    12     1    12 1
    13     1    13 1
    14     2    14 1
    15     4    15 1
    16     5    16 1
    17     6    17 1
    18     7    18 1
    19     8    19 1
    20     9    20 1
    21    11    21 1
    22    11    22 1
    23    11    23 1
@<TRIPOS>SUBSTRUCTURE
     1 PUF         1 TEMP              0 ****  ****    0 ROOT
