@<TRIPOS>MOLECULE
PUG
   35    36     1     0     0
SMALL
bcc


@<TRIPOS>ATOM
      1 O1          0.1230   -0.7200    0.2170 o         1 PUG     -0.628500
      2 C2          1.3380   -0.4420    0.1630 c         1 PUG      0.814500
      3 N3          2.1040   -0.2960    1.3310 n         1 PUG     -0.585500
      4 C4          3.4880   -0.0200    1.3480 c         1 PUG      0.758700
      5 O2          4.0880    0.0480    2.4330 o         1 PUG     -0.611500
      6 N1          1.9460   -0.2540   -1.1050 n         1 PUG     -0.440100
      7 C8          3.3000    0.0070   -1.1450 cc        1 PUG      0.190200
      8 C9          4.0750    0.1370    0.0310 cd        1 PUG     -0.271600
      9 N5          5.4020    0.4920   -0.3210 n         1 PUG     -0.361100
     10 N7          4.1360    0.2100   -2.2570 n         1 PUG     -0.370000
     11 C6          5.4760    0.4060   -1.7440 c         1 PUG      0.768500
     12 O4          6.4760    0.5790   -2.4580 o         1 PUG     -0.615500
     13 C10         3.7990    0.0710   -3.6380 c3        1 PUG      0.105000
     14 C11         3.5060   -1.3700   -4.1090 c3        1 PUG      0.141100
     15 O19         2.2220   -1.7010   -3.6110 oh        1 PUG     -0.621800
     16 C12         3.5660   -1.4200   -5.6480 c3        1 PUG      0.113100
     17 O21         2.8450   -0.3030   -6.1410 oh        1 PUG     -0.586800
     18 C13         2.9590   -2.7240   -6.1990 c3        1 PUG      0.102100
     19 O23         3.2520   -3.7580   -5.2730 oh        1 PUG     -0.613800
     20 C14         3.5470   -3.0510   -7.5750 c3        1 PUG      0.091400
     21 O26         2.9100   -4.2460   -7.9950 oh        1 PUG     -0.608800
     22 H3          1.6240   -0.4120    2.1980 hn        1 PUG      0.358500
     23 H1          1.4320   -0.4940   -1.9290 hn        1 PUG      0.382500
     24 H5          6.1620    0.1760    0.2360 hn        1 PUG      0.343500
     25 H101        2.8830    0.6960   -3.8540 h1        1 PUG      0.095200
     26 H102        4.6670    0.4680   -4.2390 h1        1 PUG      0.095200
     27 H11         4.2680   -2.1040   -3.7210 h1        1 PUG      0.069700
     28 H19         2.0670   -2.6350   -3.8100 ho        1 PUG      0.432000
     29 H12         4.6460   -1.3420   -5.9620 h1        1 PUG      0.052700
     30 H21         2.8800   -0.3450   -7.1050 ho        1 PUG      0.405000
     31 H13         1.8400   -2.6100   -6.2840 h1        1 PUG      0.071700
     32 H23         2.9870   -4.5890   -5.6910 ho        1 PUG      0.434000
     33 H141        4.6560   -3.2070   -7.5020 h1        1 PUG      0.037700
     34 H142        3.3300   -2.2200   -8.2970 h1        1 PUG      0.037700
     35 H26         3.3210   -4.5060   -8.8280 ho        1 PUG      0.416000
@<TRIPOS>BOND
     1    1    2 2
     2    2    3 1
     3    2    6 1
     4    3    4 1
     5    3   22 1
     6    4    5 2
     7    4    8 1
     8    6    7 1
     9    6   23 1
    10    7    8 2
    11    7   10 1
    12    8    9 1
    13    9   11 1
    14    9   24 1
    15   10   11 1
    16   10   13 1
    17   11   12 2
    18   13   14 1
    19   13   25 1
    20   13   26 1
    21   14   15 1
    22   14   16 1
    23   14   27 1
    24   15   28 1
    25   16   17 1
    26   16   18 1
    27   16   29 1
    28   17   30 1
    29   18   19 1
    30   18   20 1
    31   18   31 1
    32   19   32 1
    33   20   21 1
    34   20   33 1
    35   20   34 1
    36   21   35 1
@<TRIPOS>SUBSTRUCTURE
     1 PUG         1 TEMP              0 ****  ****    0 ROOT
