@<TRIPOS>MOLECULE
molecule
   62    63     1     0     0
SMALL
bcc


@<TRIPOS>ATOM
      1 OAH          0.0000     0.0000     0.0000 o          1 PUM      -0.623500
      2 CBB          1.2180     0.0000     0.0000 c          1 PUM       0.715700
      3 NAT          1.8980     0.0000     1.1640 ns         1 PUM      -0.559500
      4 CBA          3.2440     0.0000     1.1630 c          1 PUM       0.801500
      5 OAG          3.8440     0.0010     2.2210 o          1 PUM      -0.627500
      6 NAS          3.9350    -0.0010     0.0090 ns         1 PUM      -0.450100
      7 CAL          3.2820    -0.0010    -1.1950 cc         1 PUM       0.065600
      8 CAZ          1.9320    -0.0060    -1.2220 cd         1 PUM      -0.301400
      9 CBG          1.1950    -0.0130    -2.5370 c3         1 PUM       0.207300
     10 OAU          0.2480     1.0750    -2.5890 os         1 PUM      -0.405600
     11 CBD          0.3370    -1.2920    -2.6650 c3         1 PUM       0.112100
     12 OAJ          1.0140    -2.2730    -3.4530 oh         1 PUM      -0.576800
     13 CBC         -0.9450    -0.8120    -3.3830 c3         1 PUM       0.111100
     14 OAI         -1.0990    -1.4820    -4.6360 oh         1 PUM      -0.574800
     15 CBE         -0.7090     0.6990    -3.6030 c3         1 PUM       0.100100
     16 CAP         -2.0140     1.4750    -3.4190 c3         1 PUM       0.117000
     17 NAR         -1.7770     2.8980    -3.6740 ns         1 PUM      -0.555900
     18 C           -2.7920     3.7790    -3.5710 c          1 PUM       0.646100
     19 O           -3.9000     3.3950    -3.2650 o          1 PUM      -0.583100
     20 CA          -2.5470     5.2420    -3.8330 c3         1 PUM       0.047700
     21 CB          -1.4970     5.7700    -2.8530 c3         1 PUM      -0.090400
     22 CG          -1.1590     7.2200    -3.1990 c3         1 PUM      -0.161400
     23 CD          -0.1250     7.7390    -2.2330 c          1 PUM       0.472100
     24 OE1          0.2990     7.0190    -1.3550 o          1 PUM      -0.372100
     25 NE2          0.3290     9.0030    -2.3470 nz         1 PUM      -0.685400
     26 N           -3.7980     5.9860    -3.6570 n          1 PUM      -0.357300
     27 OAK         -4.3430     6.7210    -4.7360 oh         1 PUM      -0.396100
     28 CAX         -4.4280     5.9700    -2.4660 c          1 PUM       0.685100
     29 OAE         -3.9600     5.3410    -1.5400 o          1 PUM      -0.541100
     30 CAN         -5.7130     6.7350    -2.2830 c3         1 PUM       0.140800
     31 NAQ         -6.1960     6.5580    -0.9110 nu         1 PUM      -0.855200
     32 CAV         -7.3610     7.1670    -0.5080 c2         1 PUM       0.693100
     33 NAB         -8.0740     7.9410    -1.3940 nz         1 PUM      -0.808600
     34 NAA         -7.7900     7.0110     0.7130 n2         1 PUM      -0.752100
     35 H1           1.4000     0.0000     2.0330 hn         1 PUM       0.370500
     36 H2           3.8460    -0.0040    -2.1200 h4         1 PUM       0.172000
     37 H4           1.8900     0.0550    -3.3650 h1         1 PUM       0.069700
     38 H5           0.0950    -1.6840    -1.6840 h1         1 PUM       0.074700
     39 H6           1.0110    -3.0990    -2.9970 ho         1 PUM       0.413000
     40 H7          -1.8120    -0.9700    -2.7530 h1         1 PUM       0.059700
     41 H8          -1.8850    -2.0020    -4.6190 ho         1 PUM       0.410000
     42 H9          -0.2960     0.8740    -4.5900 h1         1 PUM       0.068700
     43 H10         -2.7570     1.1020    -4.1130 h1         1 PUM       0.077200
     44 H11         -2.3700     1.3450    -2.4040 h1         1 PUM       0.077200
     45 H12         -0.8740     3.2090    -3.9730 hn         1 PUM       0.318500
     46 H13         -2.1910     5.3720    -4.8480 h1         1 PUM       0.095700
     47 H14         -0.6020     5.1640    -2.9220 hc         1 PUM       0.103700
     48 H15         -1.8890     5.7220    -1.8440 hc         1 PUM       0.103700
     49 H16         -0.7670     7.2680    -4.2080 hc         1 PUM       0.094200
     50 H17         -2.0540     7.8260    -3.1300 hc         1 PUM       0.094200
     51 H18         -0.4350     9.6140    -2.5590 hn         1 PUM       0.481467
     52 H19          1.0070     9.0500    -3.0820 hn         1 PUM       0.481467
     53 H20         -4.7400     6.1270    -5.3520 ho         1 PUM       0.432000
     54 H21         -5.5370     7.7870    -2.4710 h1         1 PUM       0.061700
     55 H22         -6.4570     6.3630    -2.9780 h1         1 PUM       0.061700
     56 H23         -5.6770     5.9960    -0.2660 hn         1 PUM       0.533800
     57 H24         -8.3460     7.3840    -2.1800 hn         1 PUM       0.468467
     58 H25         -7.5040     8.7020    -1.7060 hn         1 PUM       0.468467
     59 H26         -8.6380     7.4540     1.0070 hn         1 PUM       0.450400
     60 H3           4.9360     0.0010     0.0300 hn         1 PUM       0.368500
     61 HE23         0.7550     9.2840    -1.4860 hn         1 PUM       0.481467
     62 HAB3        -8.8970     8.2900    -0.9440 hn         1 PUM       0.468467
@<TRIPOS>BOND
     1     3     2 1
     2     3     4 1
     3     1     2 2
     4     5     4 2
     5     2     8 1
     6     4     6 1
     7     8     7 2
     8     8     9 1
     9     6     7 1
    10    34    32 2
    11    12    11 1
    12    11     9 1
    13    11    13 1
    14     9    10 1
    15    32    33 1
    16    32    31 1
    17    13    14 1
    18    13    15 1
    19    10    15 1
    20    30    31 1
    21    30    28 1
    22    15    16 1
    23    21    20 1
    24    21    22 1
    25    24    23 2
    26    20    18 1
    27    20    26 1
    28    18    19 2
    29    18    17 1
    30    17    16 1
    31    23    22 1
    32    23    25 1
    33    28    26 1
    34    28    29 2
    35    26    27 1
    36     3    35 1
    37     7    36 1
    38     9    37 1
    39    11    38 1
    40    12    39 1
    41    13    40 1
    42    14    41 1
    43    15    42 1
    44    16    43 1
    45    16    44 1
    46    17    45 1
    47    20    46 1
    48    21    47 1
    49    21    48 1
    50    22    49 1
    51    22    50 1
    52    25    51 1
    53    25    52 1
    54    27    53 1
    55    30    54 1
    56    30    55 1
    57    31    56 1
    58    33    57 1
    59    33    58 1
    60    34    59 1
    61     6    60 1
    62    61    25 1
    63    62    33 1
@<TRIPOS>SUBSTRUCTURE
     1 PUM         1 TEMP              0 ****  ****    0 ROOT
