@<TRIPOS>MOLECULE
PUM
   62    63     1     0     0
SMALL
bcc


@<TRIPOS>ATOM
      1 OAH          0.0000     0.0000     0.0000 o          1 PUM      -0.666500
      2 CBB          1.2180     0.0000     0.0000 c          1 PUM       0.629700
      3 NAT          1.8980     0.0000     1.1640 ns         1 PUM      -0.123500
      4 CBA          3.2440     0.0000     1.1630 c          1 PUM       0.567500
      5 OAG          3.8440     0.0010     2.2210 o          1 PUM      -0.675500
      6 NAS          3.9350    -0.0010     0.0090 ns         1 PUM       0.021900
      7 CAL          3.2820    -0.0010    -1.1950 cc         1 PUM      -0.067400
      8 CAZ          1.9320    -0.0060    -1.2220 cd         1 PUM      -0.319400
      9 CBG          1.1950    -0.0130    -2.5370 c3         1 PUM       0.264300
     10 OAU          0.2480     1.0750    -2.5890 os         1 PUM      -0.400600
     11 CBD          0.3370    -1.2920    -2.6650 c3         1 PUM       0.135100
     12 OAJ          1.0140    -2.2730    -3.4530 oh         1 PUM      -0.556800
     13 CBC         -0.9450    -0.8120    -3.3830 c3         1 PUM       0.150100
     14 OAI         -1.0990    -1.4820    -4.6360 oh         1 PUM      -0.555800
     15 CBE         -0.7090     0.6990    -3.6030 c3         1 PUM       0.138100
     16 CAP         -2.0140     1.4750    -3.4190 c3         1 PUM       0.042000
     17 NAR         -1.7770     2.8980    -3.6740 ns         1 PUM      -0.140900
     18 C           -2.7920     3.7790    -3.5710 c          1 PUM       0.551100
     19 O           -3.9000     3.3950    -3.2650 o          1 PUM      -0.635100
     20 CA          -2.5470     5.2420    -3.8330 c3         1 PUM      -0.047300
     21 CB          -1.4970     5.7700    -2.8530 c3         1 PUM      -0.049400
     22 CG          -1.1590     7.2200    -3.1990 c3         1 PUM      -0.091400
     23 CD          -0.1250     7.7390    -2.2330 c          1 PUM       0.303100
     24 OE1          0.2990     7.0190    -1.3550 o          1 PUM      -0.373100
     25 NE2          0.3290     9.0030    -2.3470 nz         1 PUM       0.200600
     26 N           -3.7980     5.9860    -3.6570 n          1 PUM       0.015700
     27 OAK         -4.3430     6.7210    -4.7360 oh         1 PUM      -0.471100
     28 CAX         -4.4280     5.9700    -2.4660 c          1 PUM       0.594100
     29 OAE         -3.9600     5.3410    -1.5400 o          1 PUM      -0.593100
     30 CAN         -5.7130     6.7350    -2.2830 c3         1 PUM       0.076800
     31 NAQ         -6.1960     6.5580    -0.9110 nu         1 PUM      -0.496200
     32 CAV         -7.3610     7.1670    -0.5080 c2         1 PUM       0.243100
     33 NAB         -8.0740     7.9410    -1.3940 nz         1 PUM       0.189400
     34 NAA         -7.7900     7.0110     0.7130 n2         1 PUM      -0.583100
     35 H1           1.4000    -0.0000     2.0330 hn         1 PUM       0.212500
     36 H2           3.8460    -0.0040    -2.1200 h4         1 PUM       0.138000
     37 H4           1.8900     0.0550    -3.3650 h1         1 PUM       0.032700
     38 H5           0.0950    -1.6840    -1.6840 h1         1 PUM       0.041700
     39 H6           1.0100    -3.0990    -2.9970 ho         1 PUM       0.396000
     40 H7          -1.8120    -0.9700    -2.7530 h1         1 PUM       0.024700
     41 H8          -1.8810    -2.0080    -4.6170 ho         1 PUM       0.395000
     42 H9          -0.2960     0.8740    -4.5900 h1         1 PUM       0.035700
     43 H10         -2.3700     1.3450    -2.4040 h1         1 PUM       0.047700
     44 H11         -2.7570     1.1020    -4.1130 h1         1 PUM       0.047700
     45 H12         -0.8720     3.2100    -3.9670 hn         1 PUM       0.174500
     46 H13         -2.1910     5.3720    -4.8480 h1         1 PUM       0.059700
     47 H14         -0.6020     5.1640    -2.9220 hc         1 PUM       0.071200
     48 H15         -1.8890     5.7220    -1.8440 hc         1 PUM       0.071200
     49 H16         -0.7670     7.2680    -4.2080 hc         1 PUM       0.055200
     50 H17         -2.0540     7.8260    -3.1300 hc         1 PUM       0.055200
     51 H18          0.7600     9.2820    -1.4870 hn         1 PUM       0.250133
     52 H19          1.0010     9.0520    -3.0870 hn         1 PUM       0.250133
     53 H20         -4.7390     6.1270    -5.3530 ho         1 PUM       0.429000
     54 H21         -5.5370     7.7870    -2.4710 h1         1 PUM       0.028700
     55 H22         -6.4570     6.3630    -2.9780 h1         1 PUM       0.028700
     56 H23         -5.6770     5.9950    -0.2660 hn         1 PUM       0.369800
     57 H24         -8.8920     8.2980    -0.9410 hn         1 PUM       0.225133
     58 H25         -8.3440     7.3850    -2.1810 hn         1 PUM       0.225133
     59 H26         -7.2720     6.4480     1.3580 hn         1 PUM       0.384400
     60 H3           4.9360     0.0010     0.0300 hn         1 PUM       0.199500
     61 HE23        -0.4370     9.6160    -2.5470 hn         1 PUM       0.250133
     62 HAB3        -7.5070     8.7070    -1.7000 hn         1 PUM       0.225133
@<TRIPOS>BOND
     1     1     2 2   
     2     2     3 1   
     3     2     8 1   
     4     3     4 1   
     5     3    35 1   
     6     4     5 2   
     7     4     6 1   
     8     6     7 1   
     9     6    60 1   
    10     7     8 2   
    11     7    36 1   
    12     8     9 1   
    13     9    10 1   
    14     9    11 1   
    15     9    37 1   
    16    10    15 1   
    17    11    12 1   
    18    11    13 1   
    19    11    38 1   
    20    12    39 1   
    21    13    14 1   
    22    13    15 1   
    23    13    40 1   
    24    14    41 1   
    25    15    16 1   
    26    15    42 1   
    27    16    17 1   
    28    16    43 1   
    29    16    44 1   
    30    17    18 1   
    31    17    45 1   
    32    18    19 2   
    33    18    20 1   
    34    20    21 1   
    35    20    26 1   
    36    20    46 1   
    37    21    22 1   
    38    21    47 1   
    39    21    48 1   
    40    22    23 1   
    41    22    49 1   
    42    22    50 1   
    43    23    24 2   
    44    23    25 1   
    45    25    51 1   
    46    25    52 1   
    47    25    61 1   
    48    26    27 1   
    49    26    28 1   
    50    27    53 1   
    51    28    29 2   
    52    28    30 1   
    53    30    31 1   
    54    30    54 1   
    55    30    55 1   
    56    31    32 1   
    57    31    56 1   
    58    32    33 1   
    59    32    34 2   
    60    33    57 1   
    61    33    58 1   
    62    33    62 1   
    63    34    59 1   
@<TRIPOS>SUBSTRUCTURE
     1 PUM         1 TEMP              0 ****  ****    0 ROOT
