@<TRIPOS>MOLECULE
PUN
   50    49     1     0     0
SMALL
bcc


@<TRIPOS>ATOM
      1 C           0.2480    0.2570    0.2000 c3        1 PUN     -0.066700
      2 C1          1.6940    0.6670    0.4040 c3        1 PUN     -0.090600
      3 C2         -0.5010    0.3580    1.5150 c3        1 PUN     -0.090600
      4 C3         -0.4230    1.1170   -0.8640 c3        1 PUN     -0.074400
      5 C4         -0.6050    0.4660   -2.2530 c3        1 PUN     -0.040000
      6 C5          0.7360   -0.0560   -2.7480 c3        1 PUN     -0.087600
      7 C6         -1.5880   -0.6830   -2.1310 c3        1 PUN     -0.087600
      8 C7         -1.1200    1.6040   -3.1520 c3        1 PUN     -0.068400
      9 C8         -1.7160    1.3860   -4.5600 c3        1 PUN     -0.033000
     10 C9         -0.9110    0.3800   -5.3630 c3        1 PUN     -0.089600
     11 C10        -3.1560    0.9190   -4.4480 c3        1 PUN     -0.089600
     12 C11        -1.6270    2.7740   -5.2330 c3        1 PUN     -0.065400
     13 C12        -2.4850    3.1770   -6.4370 c3        1 PUN     -0.047000
     14 C13        -3.9400    3.4130   -6.0520 c3        1 PUN     -0.087433
     15 C14        -1.9180    4.5140   -6.9330 c3        1 PUN     -0.087433
     16 C15        -2.4180    2.1940   -7.5920 c3        1 PUN     -0.087433
     17 H           0.2330   -0.8230   -0.1190 hc        1 PUN      0.049700
     18 H1          2.2500    0.6350   -0.5650 hc        1 PUN      0.032700
     19 H1A         1.7540    1.7050    0.8100 hc        1 PUN      0.032700
     20 H1B         2.1940   -0.0230    1.1250 hc        1 PUN      0.032700
     21 H2         -1.5450   -0.0190    1.3990 hc        1 PUN      0.032700
     22 H2A         0.0110   -0.2510    2.2990 hc        1 PUN      0.032700
     23 H2B        -0.5430    1.4180    1.8640 hc        1 PUN      0.032700
     24 H3          0.1720    2.0600   -0.9950 hc        1 PUN      0.039700
     25 H3A        -1.4420    1.4190   -0.5000 hc        1 PUN      0.039700
     26 H5          0.6200   -0.6490   -3.6850 hc        1 PUN      0.034867
     27 H5A         1.4360    0.7920   -2.9440 hc        1 PUN      0.034867
     28 H5B         1.2010   -0.7270   -1.9850 hc        1 PUN      0.034867
     29 H6         -2.5870   -0.3050   -1.8050 hc        1 PUN      0.034867
     30 H6A        -1.7000   -1.2180   -3.1040 hc        1 PUN      0.034867
     31 H6B        -1.2330   -1.4250   -1.3750 hc        1 PUN      0.034867
     32 H7         -0.2500    2.3100   -3.2680 hc        1 PUN      0.035700
     33 H7A        -1.9140    2.1490   -2.5680 hc        1 PUN      0.035700
     34 H9         -1.2550    0.3500   -6.4240 hc        1 PUN      0.035367
     35 H9A        -1.0320   -0.6460   -4.9400 hc        1 PUN      0.035367
     36 H9B         0.1720    0.6540   -5.3530 hc        1 PUN      0.035367
     37 H10        -3.5690    0.6850   -5.4590 hc        1 PUN      0.035367
     38 H10A       -3.2330   -0.0070   -3.8320 hc        1 PUN      0.035367
     39 H10B       -3.7840    1.7110   -3.9730 hc        1 PUN      0.035367
     40 H11        -1.8410    3.5460   -4.4400 hc        1 PUN      0.036200
     41 H11A       -0.5510    2.9050   -5.5380 hc        1 PUN      0.036200
     42 H13        -4.4410    4.0480   -6.8240 hc        1 PUN      0.033700
     43 H13A       -4.5050    2.4540   -5.9860 hc        1 PUN      0.033700
     44 H13B       -4.0060    3.9360   -5.0680 hc        1 PUN      0.033700
     45 H14        -1.9630    5.2770   -6.1200 hc        1 PUN      0.033700
     46 H14A       -0.8570    4.3920   -7.2540 hc        1 PUN      0.033700
     47 H14B       -2.5100    4.8860   -7.8030 hc        1 PUN      0.033700
     48 H15        -2.9180    1.2310   -7.3320 hc        1 PUN      0.033700
     49 H15A       -2.9380    2.6230   -8.4840 hc        1 PUN      0.033700
     50 H15B       -1.3560    1.9910   -7.8680 hc        1 PUN      0.033700
@<TRIPOS>BOND
     1    1    2 1   
     2    1    3 1   
     3    1    4 1   
     4    1   17 1   
     5    2   18 1   
     6    2   19 1   
     7    2   20 1   
     8    3   21 1   
     9    3   22 1   
    10    3   23 1   
    11    4    5 1   
    12    4   24 1   
    13    4   25 1   
    14    5    6 1   
    15    5    7 1   
    16    5    8 1   
    17    6   26 1   
    18    6   27 1   
    19    6   28 1   
    20    7   29 1   
    21    7   30 1   
    22    7   31 1   
    23    8    9 1   
    24    8   32 1   
    25    8   33 1   
    26    9   10 1   
    27    9   11 1   
    28    9   12 1   
    29   10   34 1   
    30   10   35 1   
    31   10   36 1   
    32   11   37 1   
    33   11   38 1   
    34   11   39 1   
    35   12   13 1   
    36   12   40 1   
    37   12   41 1   
    38   13   14 1   
    39   13   15 1   
    40   13   16 1   
    41   14   42 1   
    42   14   43 1   
    43   14   44 1   
    44   15   45 1   
    45   15   46 1   
    46   15   47 1   
    47   16   48 1   
    48   16   49 1   
    49   16   50 1   
@<TRIPOS>SUBSTRUCTURE
     1 PUN         1 TEMP              0 ****  ****    0 ROOT
