@<TRIPOS>MOLECULE
molecule
   50    49     1     0     0
SMALL
bcc


@<TRIPOS>ATOM
      1 C            0.0000     0.0000     0.0000 c3         1 PUN      -0.080700
      2 C1           1.5310     0.0000     0.0000 c3         1 PUN      -0.088600
      3 C2          -0.5100     0.0000     1.4420 c3         1 PUN      -0.088600
      4 C3          -0.5100     1.2500    -0.7210 c3         1 PUN      -0.066400
      5 C4          -0.6430     0.9560    -2.2170 c3         1 PUN      -0.065000
      6 C5           0.6950     0.4510    -2.7590 c3         1 PUN      -0.106600
      7 C6          -1.7170    -0.1120    -2.4330 c3         1 PUN      -0.106600
      8 C7          -1.0420     2.2360    -2.9540 c3         1 PUN      -0.060400
      9 C8          -1.5620     1.8800    -4.3490 c3         1 PUN      -0.060000
     10 C9          -0.6640     0.8090    -4.9690 c3         1 PUN      -0.135100
     11 C10         -2.9910     1.3470    -4.2400 c3         1 PUN      -0.135100
     12 C11         -1.5490     3.1300    -5.2320 c3         1 PUN      -0.060400
     13 C12         -2.4550     2.9070    -6.4450 c3         1 PUN      -0.067000
     14 C13         -3.9190     3.0070    -6.0130 c3         1 PUN      -0.088767
     15 C14         -2.1610     3.9730    -7.5030 c3         1 PUN      -0.088767
     16 C15         -2.1890     1.5190    -7.0300 c3         1 PUN      -0.088767
     17 H           -0.3610    -0.8850    -0.5100 hc         1 PUN       0.054700
     18 H1           1.8920     0.9930    -0.2410 hc         1 PUN       0.033200
     19 H1A          1.8920    -0.7050    -0.7390 hc         1 PUN       0.033200
     20 H1B          1.8920    -0.2880     0.9800 hc         1 PUN       0.033200
     21 H2          -0.1630     0.8940     1.9470 hc         1 PUN       0.033200
     22 H2A         -1.5930    -0.0180     1.4420 hc         1 PUN       0.033200
     23 H2B         -0.1340    -0.8750     1.9580 hc         1 PUN       0.033200
     24 H3          -1.4770     1.5280    -0.3210 hc         1 PUN       0.042200
     25 H3A          0.1900     2.0630    -0.5740 hc         1 PUN       0.042200
     26 H5           0.9150     0.9490    -3.6960 hc         1 PUN       0.042700
     27 H5A          0.6380    -0.6180    -2.9230 hc         1 PUN       0.042700
     28 H5B          1.4790     0.6660    -2.0430 hc         1 PUN       0.042700
     29 H6          -1.3310    -1.0780    -2.1300 hc         1 PUN       0.042700
     30 H6A         -2.5910     0.1300    -1.8410 hc         1 PUN       0.042700
     31 H6B         -1.9890    -0.1440    -3.4810 hc         1 PUN       0.042700
     32 H7          -1.8200     2.7460    -2.3980 hc         1 PUN       0.042200
     33 H7A         -0.1800     2.8850    -3.0440 hc         1 PUN       0.042200
     34 H9           0.2160     1.2770    -5.3940 hc         1 PUN       0.049533
     35 H9A         -1.2080     0.2890    -5.7480 hc         1 PUN       0.049533
     36 H9B         -0.3630     0.1020    -4.2050 hc         1 PUN       0.049533
     37 H10         -3.1590     0.6040    -5.0100 hc         1 PUN       0.049533
     38 H10A        -3.1360     0.8970    -3.2650 hc         1 PUN       0.049533
     39 H10B        -3.6920     2.1640    -4.3680 hc         1 PUN       0.049533
     40 H11         -0.5370     3.3240    -5.5680 hc         1 PUN       0.041700
     41 H11A        -1.9090     3.9780    -4.6630 hc         1 PUN       0.041700
     42 H13         -4.3280     2.0120    -5.8920 hc         1 PUN       0.036478
     43 H13A        -4.4820     3.5400    -6.7690 hc         1 PUN       0.036478
     44 H13B        -3.9820     3.5400    -5.0720 hc         1 PUN       0.036478
     45 H14         -2.3250     4.9570    -7.0800 hc         1 PUN       0.036478
     46 H14A        -2.8190     3.8300    -8.3510 hc         1 PUN       0.036478
     47 H14B        -1.1310     3.8860    -7.8260 hc         1 PUN       0.036478
     48 H15         -1.1220     1.3350    -7.0520 hc         1 PUN       0.036478
     49 H15A        -2.5840     1.4700    -8.0380 hc         1 PUN       0.036478
     50 H15B        -2.6730     0.7690    -6.4160 hc         1 PUN       0.036478
@<TRIPOS>BOND
     1     1     2 1
     2     1     3 1
     3     1     4 1
     4     1    17 1
     5     2    18 1
     6     2    19 1
     7     2    20 1
     8     3    21 1
     9     3    22 1
    10     3    23 1
    11     4     5 1
    12     4    24 1
    13     4    25 1
    14     5     6 1
    15     5     7 1
    16     5     8 1
    17     6    26 1
    18     6    27 1
    19     6    28 1
    20     7    29 1
    21     7    30 1
    22     7    31 1
    23     8     9 1
    24     8    32 1
    25     8    33 1
    26     9    10 1
    27     9    11 1
    28     9    12 1
    29    10    34 1
    30    10    35 1
    31    10    36 1
    32    11    37 1
    33    11    38 1
    34    11    39 1
    35    12    13 1
    36    12    40 1
    37    12    41 1
    38    13    14 1
    39    13    15 1
    40    13    16 1
    41    14    42 1
    42    14    43 1
    43    14    44 1
    44    15    45 1
    45    15    46 1
    46    15    47 1
    47    16    48 1
    48    16    49 1
    49    16    50 1
@<TRIPOS>SUBSTRUCTURE
     1 PUN         1 TEMP              0 ****  ****    0 ROOT
