@<TRIPOS>MOLECULE
PUP
   52    54     1     0     0
SMALL
bcc


@<TRIPOS>ATOM
      1 N01        -1.1360    0.9530   -0.2070 n         1 PUP     -0.344000
      2 N           0.2930    1.5050    1.6750 n         1 PUP     -0.601500
      3 C01        -4.5630    0.7560   -2.5250 c3        1 PUP      0.154400
      4 C02        -3.1430    0.5610   -3.0540 c3        1 PUP      0.091100
      5 C03        -2.7310   -0.9410   -2.9850 c3        1 PUP      0.180100
      6 C04        -1.7970   -0.9810   -1.7340 c3        1 PUP      0.106100
      7 C05        -1.2800    0.4850   -1.6020 c3        1 PUP      0.270500
      8 C06         0.1580    1.2090    0.3000 c         1 PUP      0.807500
      9 C07        -0.8040    1.6330    2.5420 c         1 PUP      0.722700
     10 C08        -2.1110    1.4550    1.9380 cc        1 PUP     -0.396200
     11 C09        -2.2300    1.1350    0.6110 cd        1 PUP      0.115600
     12 C10        -7.3220    6.2730   -0.4480 c3        1 PUP      0.154400
     13 C11        -5.9250    6.3930   -1.0630 c3        1 PUP      0.074100
     14 C12        -4.9520    5.2590   -0.6450 c3        1 PUP      0.163100
     15 C13        -3.6240    5.9930   -0.3190 c3        1 PUP      0.113100
     16 C          -4.0020    7.4790   -0.2340 c3        1 PUP      0.118400
     17 O01        -5.0330    2.0670   -2.7270 os        1 PUP     -0.574200
     18 O02        -2.2020    1.3380   -2.2840 os        1 PUP     -0.438600
     19 O03        -2.0830   -1.3160   -4.1250 os        1 PUP     -0.548200
     20 O04        -0.7040   -1.8440   -1.8230 oh        1 PUP     -0.659800
     21 O05         1.2000    1.2000   -0.3960 o         1 PUP     -0.669500
     22 O06        -0.5730    1.8910    3.7480 o         1 PUP     -0.719500
     23 O07        -1.5310   -3.6730   -3.8190 o         1 PUP     -0.916833
     24 O08        -3.9300   -3.0380   -4.3780 o         1 PUP     -0.916833
     25 O09        -2.1170   -2.8570   -6.1780 o         1 PUP     -0.916833
     26 O10        -5.0360    2.3020   -0.1780 o         1 PUP     -0.854000
     27 O11        -6.9800    3.2880   -1.5840 o         1 PUP     -0.854000
     28 O12        -8.2850    5.9190   -1.4130 oh        1 PUP     -0.652800
     29 O13        -5.3660    7.6430   -0.6180 os        1 PUP     -0.452600
     30 O14        -4.7530    4.3390   -1.6590 os        1 PUP     -0.550200
     31 O          -2.6140    5.8520   -1.2940 oh        1 PUP     -0.625800
     32 P01        -2.4730   -2.9140   -4.7240 p5        1 PUP      1.313900
     33 P          -5.5630    2.8840   -1.4310 p5        1 PUP      1.455800
     34 H1          1.2160    1.6440    2.0150 hn        1 PUP      0.318500
     35 H2         -4.6120    0.4920   -1.4330 h1        1 PUP      0.048200
     36 H3         -5.2300    0.0660   -3.1190 h1        1 PUP      0.048200
     37 H4         -3.0540    0.9560   -4.1000 h1        1 PUP      0.087700
     38 H5         -3.6330   -1.5990   -2.8060 h1        1 PUP      0.086700
     39 H6         -2.3980   -1.2630   -0.8250 h1        1 PUP      0.013700
     40 H7         -0.2710    0.6010   -2.0970 h2        1 PUP      0.107700
     41 H8         -2.9940    1.6120    2.5650 ha        1 PUP      0.168000
     42 H9         -3.2310    1.0340    0.1240 h4        1 PUP      0.240000
     43 H10        -7.6520    7.2750   -0.0590 h1        1 PUP      0.029700
     44 H11        -7.3230    5.5290    0.3920 h1        1 PUP      0.029700
     45 H13        -5.3250    4.7400    0.2840 h1        1 PUP      0.054700
     46 H14        -3.2060    5.6260    0.6570 h1        1 PUP      0.047700
     47 H16        -3.3780    8.0980   -0.9280 h1        1 PUP      0.029200
     48 H17        -0.8290   -2.4060   -2.6400 ho        1 PUP      0.506000
     49 H21        -8.0830    5.0110   -1.7080 ho        1 PUP      0.473000
     50 H22        -2.8180    5.0690   -1.8300 ho        1 PUP      0.454000
     51 H12        -6.0000    6.4370   -2.1830 h1        1 PUP      0.078700
     52 H15        -3.9120    7.8680    0.8120 h1        1 PUP      0.029200
@<TRIPOS>BOND
     1    1    7 1   
     2    1    8 1   
     3    1   11 1   
     4    2    8 1   
     5    2    9 1   
     6    2   34 1   
     7    3    4 1   
     8    3   17 1   
     9    3   35 1   
    10    3   36 1   
    11    4    5 1   
    12    4   18 1   
    13    4   37 1   
    14    5    6 1   
    15    5   19 1   
    16    5   38 1   
    17    6    7 1   
    18    6   20 1   
    19    6   39 1   
    20    7   18 1   
    21    7   40 1   
    22    8   21 2   
    23    9   10 1   
    24    9   22 2   
    25   10   11 2   
    26   10   41 1   
    27   11   42 1   
    28   12   13 1   
    29   12   28 1   
    30   12   43 1   
    31   12   44 1   
    32   13   14 1   
    33   13   29 1   
    34   13   51 1   
    35   14   15 1   
    36   14   30 1   
    37   14   45 1   
    38   15   16 1   
    39   15   31 1   
    40   15   46 1   
    41   16   29 1   
    42   16   47 1   
    43   16   52 1   
    44   17   33 1   
    45   19   32 1   
    46   20   48 1   
    47   23   32 1   
    48   24   32 1   
    49   25   32 1   
    50   26   33 1   
    51   27   33 1   
    52   28   49 1   
    53   30   33 1   
    54   31   50 1   
@<TRIPOS>SUBSTRUCTURE
     1 PUP         1 TEMP              0 ****  ****    0 ROOT
