@<TRIPOS>MOLECULE
PUR
   31    33     1     0     0
SMALL
bcc


@<TRIPOS>ATOM
      1 N1         -0.4000    0.5520    0.5910 nb        1 PUR     -0.645000
      2 C2          0.9380    0.8310    0.4460 ca        1 PUR      0.682900
      3 N3          1.9360    0.6430    1.3450 nb        1 PUR     -0.634000
      4 C4          1.5080    0.1070    2.5200 ca        1 PUR      0.445800
      5 C5          0.1120   -0.2280    2.7800 ca        1 PUR     -0.325800
      6 C6         -0.8210    0.0270    1.7440 ca        1 PUR      0.504200
      7 N7          0.0530   -0.7590    4.0780 na        1 PUR     -0.196200
      8 C8          1.3240   -0.7610    4.5960 cc        1 PUR      0.348700
      9 N9          2.2250   -0.2410    3.6960 na        1 PUR     -0.220000
     10 C1'         3.6880   -0.1850    3.8550 c3        1 PUR      0.204800
     11 C2'         4.2880    1.2570    3.7440 c3        1 PUR      0.096100
     12 O2'         5.3090    1.2720    2.7880 oh        1 PUR     -0.554800
     13 C3'         4.8040    1.5740    5.1710 c3        1 PUR      0.089100
     14 O3'         6.2110    1.6980    5.1570 oh        1 PUR     -0.580800
     15 C4'         4.4720    0.3370    6.0220 c3        1 PUR      0.080100
     16 O4'         4.0310   -0.7060    5.1270 os        1 PUR     -0.397600
     17 C5'         3.3860    0.6160    7.0620 c3        1 PUR      0.109400
     18 O5'         2.6220   -0.5450    7.3210 oh        1 PUR     -0.619800
     19 H2          1.2430    1.2660   -0.5350 h5        1 PUR      0.101100
     20 H6         -1.9010   -0.1930    1.8470 h4        1 PUR      0.069100
     21 HN7        -0.7670   -1.0820    4.5410 hn        1 PUR      0.362700
     22 H8          1.6120   -1.1180    5.6170 h5        1 PUR      0.169800
     23 H1'         4.1290   -0.8820    3.0780 h2        1 PUR      0.142700
     24 H2'         3.5410    2.0140    3.3830 h1        1 PUR      0.115700
     25 HO2'        6.0800    0.8020    3.1480 ho        1 PUR      0.434000
     26 H3'         4.3240    2.5020    5.5770 h1        1 PUR      0.080700
     27 HO3'        6.4230    2.5590    4.7670 ho        1 PUR      0.437000
     28 H4'         5.3980   -0.0880    6.5050 h1        1 PUR      0.127700
     29 H5'1        3.8620    1.0010    8.0020 h1        1 PUR      0.071200
     30 H5'2        2.6370    1.3660    6.6890 h1        1 PUR      0.071200
     31 HO5'        3.2060   -1.1970    7.7300 ho        1 PUR      0.431000
@<TRIPOS>BOND
     1    1    2 ar  
     2    1    6 ar  
     3    2    3 ar  
     4    2   19 1   
     5    3    4 ar  
     6    4    5 ar  
     7    4    9 1   
     8    5    6 ar  
     9    5    7 1   
    10    6   20 1   
    11    7    8 2   
    12    7   21 1   
    13    8    9 1   
    14    8   22 1   
    15    9   10 1   
    16   10   11 1   
    17   10   16 1   
    18   10   23 1   
    19   11   12 1   
    20   11   13 1   
    21   11   24 1   
    22   12   25 1   
    23   13   14 1   
    24   13   15 1   
    25   13   26 1   
    26   14   27 1   
    27   15   16 1   
    28   15   17 1   
    29   15   28 1   
    30   17   18 1   
    31   17   29 1   
    32   17   30 1   
    33   18   31 1   
@<TRIPOS>SUBSTRUCTURE
     1 PUR         1 TEMP              0 ****  ****    0 ROOT
