@<TRIPOS>MOLECULE
molecule
   31    33     1     0     0
SMALL
bcc


@<TRIPOS>ATOM
      1 N1           0.0000     0.0000     0.0000 nb         1 PUR      -0.686000
      2 C2           1.3210     0.0000     0.0000 ca         1 PUR       0.752900
      3 N3           2.0260     0.0000     1.1120 nb         1 PUR      -0.693000
      4 C4           1.4210     0.0050     2.2910 ca         1 PUR       0.506800
      5 C5           0.0120     0.0010     2.3370 ca         1 PUR      -0.371800
      6 C6          -0.6870     0.0000     1.1300 ca         1 PUR       0.532200
      7 N7          -0.3420     0.0010     3.6450 na         1 PUR      -0.148200
      8 C8           0.7290     0.0010     4.3850 cc         1 PUR       0.336700
      9 N9           1.8410     0.0010     3.5980 na         1 PUR      -0.184000
     10 C1'          3.2310     0.0000     4.0620 c3         1 PUR       0.240800
     11 C2'          3.7570     1.4500     4.2200 c3         1 PUR       0.093100
     12 O2'          4.2720     1.9440     2.9820 oh         1 PUR      -0.553800
     13 C3'          4.8940     1.2720     5.2600 c3         1 PUR       0.097100
     14 O3'          6.1610     1.1880     4.6060 oh         1 PUR      -0.560800
     15 C4'          4.5530    -0.0570     5.9620 c3         1 PUR       0.122100
     16 O4'          3.3210    -0.5390     5.3970 os         1 PUR      -0.408600
     17 C5'          4.3800     0.1770     7.4640 c3         1 PUR       0.142400
     18 O5'          4.1730    -1.0760     8.1200 oh         1 PUR      -0.594800
     19 H2           1.8430    -0.0000    -0.9490 h5         1 PUR       0.105100
     20 H6          -1.7710     0.0000     1.1180 h4         1 PUR       0.062100
     21 HN7         -1.2820     0.0020     3.9890 hn         1 PUR       0.359700
     22 H8           0.7350     0.0020     5.4680 h5         1 PUR       0.134800
     23 H1'          3.8650    -0.5600     3.3840 h2         1 PUR       0.148700
     24 H2'          2.9810     2.0980     4.6090 h1         1 PUR       0.051700
     25 HO2'         4.1180     2.8730     2.9260 ho         1 PUR       0.421000
     26 H3'          4.8830     2.0870     5.9730 h1         1 PUR       0.063700
     27 HO3'         6.7530     1.8160     4.9870 ho         1 PUR       0.423000
     28 H4'          5.3420    -0.7780     5.7850 h1         1 PUR       0.110700
     29 H5'1         3.5250     0.8190     7.6330 h1         1 PUR       0.036200
     30 H5'2         5.2710     0.6490     7.8600 h1         1 PUR       0.036200
     31 HO5'         4.2770    -0.9640     9.0510 ho         1 PUR       0.421000
@<TRIPOS>BOND
     1     1     2 ar
     2     1     6 ar
     3     2     3 ar
     4     2    19 1
     5     3     4 ar
     6     4     5 ar
     7     4     9 1
     8     5     6 ar
     9     5     7 1
    10     6    20 1
    11     7     8 2
    12     7    21 1
    13     8     9 1
    14     8    22 1
    15     9    10 1
    16    10    11 1
    17    10    16 1
    18    10    23 1
    19    11    12 1
    20    11    13 1
    21    11    24 1
    22    12    25 1
    23    13    14 1
    24    13    15 1
    25    13    26 1
    26    14    27 1
    27    15    16 1
    28    15    17 1
    29    15    28 1
    30    17    18 1
    31    17    29 1
    32    17    30 1
    33    18    31 1
@<TRIPOS>SUBSTRUCTURE
     1 PUR         1 TEMP              0 ****  ****    0 ROOT
