@<TRIPOS>MOLECULE
molecule
   41    41     1     0     0
SMALL
bcc


@<TRIPOS>ATOM
      1 N            0.0000     0.0000     0.0000 n2         1 PUS      -0.583900
      2 CA           1.4660     0.0000     0.0000 c3         1 PUS       0.002500
      3 CB           1.9750     1.2490    -0.7220 c3         1 PUS      -0.206600
      4 OG           1.5970     2.4130     0.0170 os         1 PUS      -0.014900
      5 ND           2.0230     3.6300    -0.5690 ns         1 PUS      -0.430400
      6 CE           1.7320     4.8030     0.0280 c          1 PUS       0.529100
      7 NZ2          2.1370     5.9610    -0.5300 nz         1 PUS      -0.723400
      8 OZ1          1.1040     4.8160     1.0680 o          1 PUS      -0.518100
      9 C            1.9680     0.0000     1.4210 c          1 PUS       0.895600
     10 O            3.2880     0.0000     1.6650 o          1 PUS      -0.814800
     11 OT           1.1830    -0.0000     2.3390 o          1 PUS      -0.814800
     12 C2          -4.2310    -0.0220    -0.0700 ca         1 PUS       0.355600
     13 C3          -2.9400    -0.0730    -0.5680 ca         1 PUS      -0.028200
     14 C4          -1.9610    -0.6740     0.1500 ca         1 PUS      -0.016900
     15 C5          -2.2470    -1.2240     1.3550 ca         1 PUS      -0.140600
     16 C6          -3.5400    -1.1720     1.8490 ca         1 PUS       0.406200
     17 C4A         -0.6470    -0.9700    -0.5590 ce         1 PUS       0.430800
     18 C5A         -1.2340    -2.1430     2.0350 c3         1 PUS       0.231700
     19 N1          -4.5150    -0.5720     1.1310 nb         1 PUS      -0.713000
     20 O4P         -1.0030    -3.2620     1.2280 os         1 PUS      -0.592200
     21 P           -0.4050    -4.6270     1.9300 p5         1 PUS       1.289900
     22 H1           1.8270    -0.8840    -0.5110 h1         1 PUS       0.086700
     23 H2           1.9520     2.0930    -0.0430 h1         1 PUS       0.126200
     24 H3           1.3420     1.4560    -1.5760 h1         1 PUS       0.126200
     25 H4           2.9450     3.7040    -0.9510 hn         1 PUS       0.236500
     26 H5           1.6850     6.0820    -1.4140 hn         1 PUS       0.380467
     27 H6           3.1290     5.9380    -0.6620 hn         1 PUS       0.380467
     28 H8          -3.7660    -1.5980     2.8190 h4         1 PUS       0.029100
     29 H9          -5.0520     1.6010    -1.2110 hc         1 PUS       0.031367
     30 H10         -6.2520     0.6600    -0.3130 hc         1 PUS       0.031367
     31 H11         -5.5260    -0.0050    -1.7830 hc         1 PUS       0.031367
     32 H12         -0.1050    -1.7830    -1.0280 h4         1 PUS       0.041800
     33 H13         -1.6230    -2.4630     2.9940 h1         1 PUS       0.059200
     34 H14         -0.3040    -1.6070     2.1830 h1         1 PUS       0.059200
     35 H15         -2.7570    -0.1600    -2.4900 ho         1 PUS       0.395000
     36 O3          -2.6470     0.4910    -1.8160 oh         1 PUS      -0.535100
     37 HZ23         2.6110     6.5140     0.1570 hn         1 PUS       0.380467
     38 C2A         -5.3460     0.6040    -0.9050 c3         1 PUS      -0.120400
     39 O1P         -1.5470    -5.5230     2.3440 o          1 PUS      -0.761167
     40 O2P          0.4070    -4.2520     3.1470 o          1 PUS      -0.761167
     41 O3P          0.4750    -5.3570     0.9440 o          1 PUS      -0.761167
@<TRIPOS>BOND
     1    38    12 1
     2    10     9 1
     3    36    13 1
     4    12    13 ar
     5    12    19 ar
     6    13    14 ar
     7     9    11 1
     8     9     2 1
     9     1     2 1
    10     1    17 2
    11    19    16 ar
    12     2     3 1
    13    14    17 1
    14    14    15 ar
    15    16    15 ar
    16    15    18 1
    17     3     4 1
    18     4     5 1
    19    20    18 1
    20    20    21 1
    21    40    21 1
    22     5     6 1
    23    39    21 1
    24    21    41 1
    25     6     7 1
    26     6     8 2
    27     2    22 1
    28     3    23 1
    29     3    24 1
    30     5    25 1
    31     7    26 1
    32     7    27 1
    33    16    28 1
    34    38    29 1
    35    38    30 1
    36    38    31 1
    37    17    32 1
    38    18    33 1
    39    18    34 1
    40    36    35 1
    41    37     7 1
@<TRIPOS>SUBSTRUCTURE
     1 PUS         1 TEMP              0 ****  ****    0 ROOT
