@<TRIPOS>MOLECULE
molecule
   20    19     1     0     0
SMALL
bcc


@<TRIPOS>ATOM
      1 N2           0.0000     0.0000     0.0000 nz         1 PUT      -0.808100
      2 C4           1.4680     0.0000     0.0000 c3         1 PUT       0.100300
      3 C3           1.9790     0.0000     1.4410 c3         1 PUT      -0.107400
      4 C2           3.5080    -0.0000     1.4410 c3         1 PUT      -0.107400
      5 C1           4.0200    -0.0000     2.8820 c3         1 PUT       0.100300
      6 N1           5.4870    -0.0000     2.8820 nz         1 PUT      -0.808100
      7 HN21        -0.3340    -0.8170     0.4720 hn         1 PUT       0.469633
      8 HN22        -0.3340     0.0000    -0.9440 hn         1 PUT       0.469633
      9 H41          1.8280     0.8840    -0.5110 hx         1 PUT       0.121700
     10 H42          1.8280    -0.8840    -0.5110 hx         1 PUT       0.121700
     11 H31          1.6180     0.8840     1.9520 hc         1 PUT       0.081700
     12 H32          1.6180    -0.8840     1.9520 hc         1 PUT       0.081700
     13 H21          3.8690    -0.8840     0.9300 hc         1 PUT       0.081700
     14 H22          3.8690     0.8840     0.9300 hc         1 PUT       0.081700
     15 H11          3.6590     0.8840     3.3930 hx         1 PUT       0.121700
     16 H12          3.6590    -0.8840     3.3930 hx         1 PUT       0.121700
     17 HN11         5.8210     0.8170     2.4100 hn         1 PUT       0.469633
     18 HN12         5.8210    -0.0000     3.8260 hn         1 PUT       0.469633
     19 H23         -0.3340     0.8170     0.4720 hn         1 PUT       0.469633
     20 H13          5.8210    -0.7990     2.3800 hn         1 PUT       0.469633
@<TRIPOS>BOND
     1     1     2 1
     2     1     7 1
     3     1     8 1
     4     2     3 1
     5     2     9 1
     6     2    10 1
     7     3     4 1
     8     3    11 1
     9     3    12 1
    10     4     5 1
    11     4    13 1
    12     4    14 1
    13     5     6 1
    14     5    15 1
    15     5    16 1
    16     6    17 1
    17     6    18 1
    18    19     1 1
    19    20     6 1
@<TRIPOS>SUBSTRUCTURE
     1 PUT         1 TEMP              0 ****  ****    0 ROOT
