@<TRIPOS>MOLECULE
PUT
   20    19     1     0     0
SMALL
bcc


@<TRIPOS>ATOM
      1 N2           0.0000     0.0000     0.0000 nz         1 PUT       0.095900
      2 C4           1.4680     0.0000     0.0000 c3         1 PUT      -0.045700
      3 C3           1.9790     0.0000     1.4410 c3         1 PUT      -0.025400
      4 C2           3.5080    -0.0000     1.4410 c3         1 PUT      -0.025400
      5 C1           4.0200    -0.0000     2.8820 c3         1 PUT      -0.045700
      6 N1           5.4870    -0.0000     2.8820 nz         1 PUT       0.095900
      7 HN21        -0.3340    -0.8170     0.4720 hn         1 PUT       0.233467
      8 HN22        -0.3340     0.0000    -0.9440 hn         1 PUT       0.233467
      9 H41          1.8280     0.8840    -0.5110 hx         1 PUT       0.091700
     10 H42          1.8280    -0.8840    -0.5110 hx         1 PUT       0.091700
     11 H31          1.6180     0.8840     1.9520 hc         1 PUT       0.046700
     12 H32          1.6180    -0.8840     1.9520 hc         1 PUT       0.046700
     13 H21          3.8690    -0.8840     0.9300 hc         1 PUT       0.046700
     14 H22          3.8690     0.8840     0.9300 hc         1 PUT       0.046700
     15 H11          3.6590     0.8840     3.3930 hx         1 PUT       0.091700
     16 H12          3.6590    -0.8840     3.3930 hx         1 PUT       0.091700
     17 HN11         5.8210     0.8170     2.4100 hn         1 PUT       0.233467
     18 HN12         5.8210    -0.0000     3.8260 hn         1 PUT       0.233467
     19 H23         -0.3340     0.8170     0.4720 hn         1 PUT       0.233467
     20 H13          5.8210    -0.7990     2.3800 hn         1 PUT       0.233467
@<TRIPOS>BOND
     1     1     2 1   
     2     1     7 1   
     3     1     8 1   
     4     1    19 1   
     5     2     3 1   
     6     2     9 1   
     7     2    10 1   
     8     3     4 1   
     9     3    11 1   
    10     3    12 1   
    11     4     5 1   
    12     4    13 1   
    13     4    14 1   
    14     5     6 1   
    15     5    15 1   
    16     5    16 1   
    17     6    17 1   
    18     6    18 1   
    19     6    20 1   
@<TRIPOS>SUBSTRUCTURE
     1 PUT         1 TEMP              0 ****  ****    0 ROOT
