@<TRIPOS>MOLECULE
molecule
   27    26     1     0     0
SMALL
bcc


@<TRIPOS>ATOM
      1 O3P          0.0000     0.0000     0.0000 o          1 PUW      -0.815500
      2 P            1.6100     0.0000     0.0000 p5         1 PUW       1.032700
      3 O1P          2.1470     0.0000     1.5190 o          1 PUW      -0.815500
      4 O2P          2.1030     1.2080    -0.6970 o          1 PUW      -0.815500
      5 C1P          2.2170    -1.4890    -0.8590 c3         1 PUW      -0.298600
      6 C1           1.8190    -1.4290    -2.3110 c          1 PUW       0.702100
      7 O1           2.4620    -0.7550    -3.0880 o          1 PUW      -0.632100
      8 NE           0.7490    -2.1230    -2.7460 ns         1 PUW      -0.602900
      9 CD           0.3620    -2.0650    -4.1570 c3         1 PUW       0.125000
     10 CG          -0.8750    -2.9370    -4.3830 c3         1 PUW      -0.097400
     11 CB          -1.2790    -2.8760    -5.8570 c3         1 PUW      -0.099400
     12 CA          -2.5160    -3.7470    -6.0830 c3         1 PUW       0.067800
     13 N           -2.9060    -3.6880    -7.4990 nz         1 PUW      -0.810600
     14 H1P1         3.2970    -1.5350    -0.7820 hc         1 PUW       0.052200
     15 H1P2         1.7850    -2.3710    -0.4020 hc         1 PUW       0.052200
     16 HE           0.2320    -2.6960    -2.1090 hn         1 PUW       0.311500
     17 HD1C         1.1770    -2.4290    -4.7700 h1         1 PUW       0.040700
     18 HD2C         0.1360    -1.0400    -4.4270 h1         1 PUW       0.040700
     19 HG1C        -1.6910    -2.5720    -3.7700 hc         1 PUW       0.054200
     20 HG2C        -0.6500    -3.9610    -4.1130 hc         1 PUW       0.054200
     21 HB1C        -0.4640    -3.2400    -6.4710 hc         1 PUW       0.055700
     22 HB2C        -1.5050    -1.8510    -6.1280 hc         1 PUW       0.055700
     23 HA1C        -3.3310    -3.3830    -5.4690 hx         1 PUW       0.088200
     24 HA2C        -2.2900    -4.7710    -5.8130 hx         1 PUW       0.088200
     25 HN1         -2.1530    -4.0240    -8.0670 hn         1 PUW       0.389133
     26 HN2         -3.7150    -4.2580    -7.6470 hn         1 PUW       0.389133
     27 HN3         -3.1140    -2.7410    -7.7490 hn         1 PUW       0.389133
@<TRIPOS>BOND
     1     1     2 1
     2     2     3 1
     3     2     4 1
     4     2     5 1
     5     5     6 1
     6     6     7 2
     7     6     8 1
     8     8     9 1
     9     9    10 1
    10    10    11 1
    11    11    12 1
    12    12    13 1
    13     5    14 1
    14     5    15 1
    15     8    16 1
    16     9    17 1
    17     9    18 1
    18    10    19 1
    19    10    20 1
    20    11    21 1
    21    11    22 1
    22    12    23 1
    23    12    24 1
    24    13    25 1
    25    13    26 1
    26    27    13 1
@<TRIPOS>SUBSTRUCTURE
     1 PUW         1 TEMP              0 ****  ****    0 ROOT
