@<TRIPOS>MOLECULE
PUW
   26    25     1     0     0
SMALL
bcc


@<TRIPOS>ATOM
      1 O3P        -0.1320    0.6950   -0.2290 o         1 PUW     -0.910833
      2 P           1.1940   -0.0080   -0.1280 p5        1 PUW      1.185700
      3 O1P         1.6120   -0.4800    1.2260 o         1 PUW     -0.910833
      4 O2P         1.5770   -0.8760   -1.2850 o         1 PUW     -0.910833
      5 C1P         2.4300    1.6180   -0.5390 c3        1 PUW     -0.347600
      6 C1          2.0930    2.9560   -0.0740 c         1 PUW      0.714100
      7 O1          2.8340    3.6910    0.6370 o         1 PUW     -0.761100
      8 NE          0.8190    3.4510   -0.4750 n         1 PUW     -0.568900
      9 CD          0.2490    4.5320    0.2780 c3        1 PUW      0.088000
     10 CG         -0.8320    5.2930   -0.4990 c3        1 PUW     -0.085400
     11 CB         -1.4090    6.3960    0.3600 c3        1 PUW     -0.114400
     12 CA         -2.4600    7.1950   -0.4080 c3        1 PUW      0.136800
     13 N          -3.1020    8.2690    0.3190 n3        1 PUW     -0.908800
     14 H1P1        2.3160    1.4810   -1.6280 hc        1 PUW      0.055200
     15 H1P2        3.4020    1.2690   -0.1610 hc        1 PUW      0.055200
     16 HE          0.1750    2.6790   -0.6330 hn        1 PUW      0.345500
     17 HD1C        1.0700    5.2530    0.5570 h1        1 PUW      0.020200
     18 HD2C       -0.2180    4.1730    1.2430 h1        1 PUW      0.020200
     19 HG1C       -1.6470    4.5870   -0.8070 hc        1 PUW      0.039700
     20 HG2C       -0.3950    5.7300   -1.4340 hc        1 PUW      0.039700
     21 HB1C       -0.5850    7.0780    0.6970 hc        1 PUW      0.032200
     22 HB2C       -1.8680    5.9490    1.2810 hc        1 PUW      0.032200
     23 HA1C       -3.2640    6.4900   -0.7620 h1        1 PUW      0.047700
     24 HA2C       -1.9780    7.6430   -1.3220 h1        1 PUW      0.047700
     25 HN1        -2.4120    8.9130    0.6570 hn        1 PUW      0.329800
     26 HN2        -3.5880    7.9000    1.1150 hn        1 PUW      0.329800
@<TRIPOS>BOND
     1    1    2 1   
     2    2    3 1   
     3    2    4 1   
     4    2    5 1   
     5    5    6 1   
     6    5   14 1   
     7    5   15 1   
     8    6    7 2   
     9    6    8 1   
    10    8    9 1   
    11    8   16 1   
    12    9   10 1   
    13    9   17 1   
    14    9   18 1   
    15   10   11 1   
    16   10   19 1   
    17   10   20 1   
    18   11   12 1   
    19   11   21 1   
    20   11   22 1   
    21   12   13 1   
    22   12   23 1   
    23   12   24 1   
    24   13   25 1   
    25   13   26 1   
@<TRIPOS>SUBSTRUCTURE
     1 PUW         1 TEMP              0 ****  ****    0 ROOT
