@<TRIPOS>MOLECULE
molecule
   43    46     1     0     0
SMALL
bcc


@<TRIPOS>ATOM
      1 C18          0.0000     0.0000     0.0000 c3         1 PUX      -0.090100
      2 C17          1.5290     0.0000     0.0000 c3         1 PUX      -0.083400
      3 C16          2.0400     0.0000     1.4420 c3         1 PUX      -0.105400
      4 C15          3.5690    -0.0000     1.4430 c3         1 PUX       0.042300
      5 N2           4.0590    -0.0010     2.8230 na         1 PUX      -0.240000
      6 C12          4.3330     1.1040     3.5870 ca         1 PUX       0.470800
      7 N4           4.2610     2.4180     3.3980 nb         1 PUX      -0.783000
      8 C14          4.6010     3.2550     4.3580 ca         1 PUX       0.922200
      9 N3           5.0200     2.8420     5.5420 nb         1 PUX      -0.795000
     10 C11          4.7690     0.6170     4.8310 ca         1 PUX      -0.170200
     11 C13          5.1210     1.5470     5.8220 ca         1 PUX       0.805200
     12 N5           5.5610     1.1250     7.0650 nv         1 PUX      -1.069500
     13 N1           4.7450    -0.7360     4.7600 nc         1 PUX      -0.570100
     14 C10          4.3280    -1.1010     3.5820 cd         1 PUX       0.428800
     15 C9           4.1670    -2.5270     3.1260 c3         1 PUX      -0.026400
     16 C1           5.4520    -3.0020     2.4990 ca         1 PUX      -0.093300
     17 C6           5.6600    -2.8390     1.1430 ca         1 PUX      -0.113000
     18 C5           6.8430    -3.2710     0.5660 ca         1 PUX       0.050100
     19 C2           6.4190    -3.6040     3.2820 ca         1 PUX      -0.101000
     20 O3           7.2900    -3.2270    -0.7230 os         1 PUX      -0.325900
     21 C3           7.6000    -4.0410     2.7120 ca         1 PUX      -0.111000
     22 C4           7.8160    -3.8780     1.3540 ca         1 PUX       0.056100
     23 O1           8.8740    -4.2140     0.5590 os         1 PUX      -0.322900
     24 C7           8.7110    -3.4420    -0.6450 c3         1 PUX       0.331200
     25 F            4.5180     4.5830     4.1230 f          1 PUX      -0.188200
     26 H181        -0.3610     0.0290    -1.0210 hc         1 PUX       0.036700
     27 H182        -0.3610     0.8700     0.5350 hc         1 PUX       0.036700
     28 H183        -0.3610    -0.8990     0.4850 hc         1 PUX       0.036700
     29 H171         1.8900     0.8840    -0.5110 hc         1 PUX       0.043200
     30 H172         1.8900    -0.8840    -0.5110 hc         1 PUX       0.043200
     31 H161         1.6780     0.8840     1.9530 hc         1 PUX       0.056200
     32 H162         1.6780    -0.8840     1.9530 hc         1 PUX       0.056200
     33 H151         3.9300     0.8850     0.9320 h1         1 PUX       0.072200
     34 H152         3.9300    -0.8840     0.9310 h1         1 PUX       0.072200
     35 H5N1         4.9040     0.9870     7.8080 hn         1 PUX       0.447800
     36 H5N2         6.5380     0.9880     7.2290 hn         1 PUX       0.447800
     37 H9C1         3.3670    -2.5850     2.3970 hc         1 PUX       0.075700
     38 H9C2         3.9270    -3.1530     3.9760 hc         1 PUX       0.075700
     39 H6           4.8760    -2.4210     0.5220 ha         1 PUX       0.139000
     40 H2           6.2480    -3.7410     4.3420 ha         1 PUX       0.151000
     41 H3           8.3560    -4.5130     3.3270 ha         1 PUX       0.148000
     42 H7C1         9.2330    -2.4960    -0.5630 h2         1 PUX       0.071200
     43 H7C2         9.0570    -4.0020    -1.5050 h2         1 PUX       0.071200
@<TRIPOS>BOND
     1     1     2 1
     2     1    26 1
     3     1    27 1
     4     1    28 1
     5     2     3 1
     6     2    29 1
     7     2    30 1
     8     3     4 1
     9     3    31 1
    10     3    32 1
    11     4     5 1
    12     4    33 1
    13     4    34 1
    14     5     6 1
    15     5    14 1
    16     6     7 ar
    17     6    10 ar
    18     7     8 ar
    19     8     9 ar
    20     8    25 1
    21     9    11 ar
    22    10    11 ar
    23    10    13 1
    24    11    12 1
    25    12    35 1
    26    12    36 1
    27    13    14 2
    28    14    15 1
    29    15    16 1
    30    15    37 1
    31    15    38 1
    32    16    17 ar
    33    16    19 ar
    34    17    18 ar
    35    17    39 1
    36    18    20 1
    37    18    22 ar
    38    19    21 ar
    39    19    40 1
    40    20    24 1
    41    21    22 ar
    42    21    41 1
    43    22    23 1
    44    23    24 1
    45    24    42 1
    46    24    43 1
@<TRIPOS>SUBSTRUCTURE
     1 PUX         1 TEMP              0 ****  ****    0 ROOT
