@<TRIPOS>MOLECULE
molecule
   47    49     1     0     0
SMALL
bcc


@<TRIPOS>ATOM
      1 C19         -0.8770    -0.0210    -2.4960 c1         1 PUZ      -0.156500
      2 C18         -0.4910    -0.0000    -1.3870 c1         1 PUZ      -0.138100
      3 C17          0.0000     0.0000     0.0000 c3         1 PUZ       0.000700
      4 C16          1.5300     0.0000     0.0000 c3         1 PUZ      -0.299400
      5 C15          2.0410     0.0000     1.4420 c3         1 PUZ      -0.009700
      6 N2           3.5060     0.0010     1.4410 na         1 PUZ      -0.218000
      7 C12          4.3160     1.1060     1.4400 ca         1 PUZ       0.454800
      8 N4           4.1110     2.4200     1.4400 nb         1 PUZ      -0.786000
      9 C11          5.6340     0.6210     1.4320 ca         1 PUZ      -0.232200
     10 C13          6.6850     1.5530     1.4230 ca         1 PUZ       0.728200
     11 N5           8.0030     1.1320     1.4140 nv         1 PUZ      -0.936500
     12 N3           6.3860     2.8470     1.4240 nb         1 PUZ      -0.784000
     13 C14          5.1290     3.2580     1.4320 ca         1 PUZ       0.927200
     14 F1           4.8790     4.5870     1.4310 f          1 PUZ      -0.188200
     15 N1           5.5610    -0.7310     1.4340 nc         1 PUZ      -0.535100
     16 C10          4.3120    -1.0980     1.4430 cd         1 PUZ       0.445800
     17 C9           3.8310    -2.5250     1.4470 c3         1 PUZ      -0.382400
     18 C1           3.6780    -2.9990     2.8690 ca         1 PUZ      -0.042300
     19 C2           4.7460    -3.6020     3.5170 ca         1 PUZ       0.142100
     20 O2           5.9300    -3.7650     2.8680 os         1 PUZ      -0.213900
     21 C7           6.8170    -4.4070     3.7850 c3         1 PUZ       0.058700
     22 C3           4.6050    -4.0400     4.8260 ca         1 PUZ      -0.188000
     23 C4           3.4030    -3.8750     5.4830 ca         1 PUZ      -0.167000
     24 C5           2.3360    -3.2710     4.8360 ca         1 PUZ       0.078100
     25 C6           2.4740    -2.8390     3.5260 ca         1 PUZ      -0.199000
     26 O5           1.1510    -3.1090     5.4840 os         1 PUZ      -0.280900
     27 C8           1.3200    -3.6520     6.7950 c3         1 PUZ       0.054700
     28 H19         -1.2410    -0.0220    -3.5160 ha         1 PUZ       0.165500
     29 H171        -0.6120     0.6500     0.6140 hc         1 PUZ       0.062200
     30 H172         0.0550    -1.0310     0.3290 hc         1 PUZ       0.062200
     31 H161         1.8680    -0.1230    -1.0220 hc         1 PUZ       0.134700
     32 H162         1.7890     0.8970     0.5490 hc         1 PUZ       0.134700
     33 H151         2.5390    -0.9620     1.4360 h1         1 PUZ       0.097700
     34 H152         1.2080    -0.4210     1.9920 h1         1 PUZ       0.097700
     35 H5N1         8.3750     1.2010     2.3410 hn         1 PUZ       0.429800
     36 H5N2         7.9490     0.3220     0.8290 hn         1 PUZ       0.429800
     37 H9C1         3.6150    -2.5780     2.5070 hc         1 PUZ       0.183200
     38 H9C2         3.1320    -2.7280     0.6440 hc         1 PUZ       0.183200
     39 H7C1         7.4880    -5.0730     3.2540 h1         1 PUZ       0.057033
     40 H7C2         6.2980    -5.3400     3.9650 h1         1 PUZ       0.057033
     41 H7C3         7.1100    -3.9740     4.7340 h1         1 PUZ       0.057033
     42 H3           5.5110    -4.5900     5.0490 ha         1 PUZ       0.172000
     43 H4           3.0530    -4.1140     6.4800 ha         1 PUZ       0.187000
     44 H6           1.6220    -2.7090     2.8700 ha         1 PUZ       0.157000
     45 H8C1         2.3630    -3.7100     7.0830 h1         1 PUZ       0.066367
     46 H8C2         1.0320    -2.7260     7.2780 h1         1 PUZ       0.066367
     47 H8C3         0.7070    -4.4590     7.1790 h1         1 PUZ       0.066367
@<TRIPOS>BOND
     1     1     2 3
     2     1    28 1
     3     2     3 1
     4     3     4 1
     5     3    29 1
     6     3    30 1
     7     4     5 1
     8     4    31 1
     9     4    32 1
    10     5     6 1
    11     5    33 1
    12     5    34 1
    13     6     7 1
    14     6    16 1
    15     7     8 ar
    16     7     9 ar
    17     8    13 ar
    18     9    10 ar
    19     9    15 1
    20    10    11 1
    21    10    12 ar
    22    11    35 1
    23    11    36 1
    24    12    13 ar
    25    13    14 1
    26    15    16 2
    27    16    17 1
    28    17    18 1
    29    17    37 1
    30    17    38 1
    31    18    19 ar
    32    18    25 ar
    33    19    20 1
    34    19    22 ar
    35    20    21 1
    36    21    39 1
    37    21    40 1
    38    21    41 1
    39    22    23 ar
    40    22    42 1
    41    23    24 ar
    42    23    43 1
    43    24    25 ar
    44    24    26 1
    45    25    44 1
    46    26    27 1
    47    27    45 1
    48    27    46 1
    49    27    47 1
@<TRIPOS>SUBSTRUCTURE
     1 PUZ         1 TEMP              0 ****  ****    0 ROOT
