@<TRIPOS>MOLECULE
molecule
   35    37     1     0     0
SMALL
bcc


@<TRIPOS>ATOM
      1 C12          0.0000     0.0000     0.0000 ca         1 PV0      -0.126300
      2 C13          1.3800     0.0000     0.0000 ca         1 PV0      -0.074300
      3 C02         -0.4000    -2.4960     4.1970 ca         1 PV0       0.233100
      4 C03         -0.3970    -3.8210     4.6030 ca         1 PV0      -0.248000
      5 C04          0.6920    -4.3300     5.2930 ca         1 PV0       0.188100
      6 O05          0.6990    -5.6290     5.6910 oh         1 PV0      -0.522100
      7 C06          1.7770    -3.5120     5.5750 ca         1 PV0      -0.202000
      8 C07          1.7710    -2.1910     5.1700 ca         1 PV0       0.008000
      9 C08          0.6890    -1.6830     4.4780 ca         1 PV0      -0.349500
     10 S09          0.6890     0.0000     3.9560 sy         1 PV0       1.460200
     11 N10          0.6900    -0.0000     2.3000 n3         1 PV0      -0.829500
     12 C11         -0.4880    -0.0010     1.4260 c3         1 PV0       0.299100
     13 C14          1.8680     0.0000     1.4270 c3         1 PV0       0.293100
     14 C15          2.0730    -0.0000    -1.1980 ca         1 PV0      -0.150000
     15 C16          1.3840    -0.0010    -2.4020 ca         1 PV0       0.129100
     16 C17         -0.0030    -0.0010    -2.4040 ca         1 PV0      -0.204000
     17 C18         -0.6950     0.0050    -1.2050 ca         1 PV0       0.147100
     18 O19         -2.0530     0.0050    -1.2050 oh         1 PV0      -0.513100
     19 O20          2.0670     0.0010    -3.5770 oh         1 PV0      -0.518100
     20 O21         -0.5610     0.5440     4.3570 o          1 PV0      -0.627300
     21 O22          1.9390     0.5450     4.3580 o          1 PV0      -0.627300
     22 H1          -2.2640    -2.3010     3.9190 ho         1 PV0       0.444000
     23 H2          -1.2260    -4.4690     4.3450 ha         1 PV0       0.150000
     24 H3           1.0890    -6.1620     5.0180 ho         1 PV0       0.430000
     25 H4           2.6280    -3.9090     6.1160 ha         1 PV0       0.150000
     26 H5           2.6200    -1.5540     5.3890 ha         1 PV0       0.165000
     27 H6          -1.0630     0.9000     1.6050 h1         1 PV0       0.070700
     28 H7          -1.0620    -0.9020     1.6040 h1         1 PV0       0.070700
     29 H8           2.4420     0.9010     1.6060 h1         1 PV0       0.059700
     30 H9           2.4420    -0.9010     1.6050 h1         1 PV0       0.059700
     31 H10          3.1560    -0.0000    -1.1960 ha         1 PV0       0.144000
     32 H11         -0.5440    -0.0010    -3.3430 ha         1 PV0       0.150000
     33 H12         -2.3680     0.7680    -1.6610 ho         1 PV0       0.425000
     34 H13          2.2220    -0.8880    -3.8510 ho         1 PV0       0.423000
     35 O01         -1.4670    -1.9940     3.5210 oh         1 PV0      -0.509100
@<TRIPOS>BOND
     1    19    15 1
     2    35     3 1
     3    15    14 ar
     4    15    16 ar
     5    14     2 ar
     6    16    17 ar
     7     2    13 1
     8     2     1 ar
     9    13    11 1
    10     3     4 ar
    11     3     9 ar
    12    17     1 ar
    13    17    18 1
    14     4     5 ar
    15     1    12 1
    16    11    12 1
    17    11    10 1
    18    21    10 2
    19    10     9 1
    20    10    20 2
    21     9     8 ar
    22     5     6 1
    23     5     7 ar
    24     8     7 ar
    25    35    22 1
    26     4    23 1
    27     6    24 1
    28     7    25 1
    29     8    26 1
    30    12    27 1
    31    12    28 1
    32    13    29 1
    33    13    30 1
    34    14    31 1
    35    16    32 1
    36    18    33 1
    37    19    34 1
@<TRIPOS>SUBSTRUCTURE
     1 PV0         1 TEMP              0 ****  ****    0 ROOT
