@<TRIPOS>MOLECULE
molecule
   32    34     1     0     0
SMALL
bcc


@<TRIPOS>ATOM
      1 C6           0.0000     0.0000     0.0000 ca         1 PV1      -0.122500
      2 C5           1.3810     0.0000     0.0000 ca         1 PV1      -0.104500
      3 O1           5.9450    -0.0890     3.0100 o          1 PV1      -0.582100
      4 C4           2.0760     0.0000     1.1970 ca         1 PV1      -0.106800
      5 C3           1.3880     0.0000     2.3940 ca         1 PV1      -0.106800
      6 C2           0.0030    -0.0000     2.3940 ca         1 PV1      -0.104500
      7 C1          -0.6890     0.0060     1.1990 ca         1 PV1      -0.122500
      8 N1           3.7260    -0.0000     2.9430 n          1 PV1      -0.492800
      9 C7           2.3810    -0.0000     3.5280 c3         1 PV1       0.149800
     10 C8           3.5560    -0.0000     1.4870 c3         1 PV1       0.149800
     11 C9           4.8940    -0.0000     3.6150 c          1 PV1       0.709700
     12 C14          4.0320    -0.5700     7.2200 ca         1 PV1      -0.075900
     13 C13          4.9060     0.3120     7.8520 ca         1 PV1       0.174100
     14 C12          5.7740     1.0910     7.1040 ca         1 PV1      -0.231000
     15 C11          5.7770     0.9960     5.7230 ca         1 PV1       0.196100
     16 C15          4.0290    -0.6770     5.8490 ca         1 PV1      -0.052000
     17 C10          4.8980     0.1080     5.0840 ca         1 PV1      -0.169600
     18 H1          -0.5430     0.0050    -0.9380 ha         1 PV1       0.135000
     19 H2           1.9210    -0.0050    -0.9390 ha         1 PV1       0.133000
     20 H3           4.3770     1.1430     9.4690 ho         1 PV1       0.432000
     21 H4          -0.5370     0.0050     3.3330 ha         1 PV1       0.133000
     22 H5           7.5030     1.6590     5.3200 ho         1 PV1       0.435000
     23 H6          -1.7720     0.0060     1.2010 ha         1 PV1       0.135000
     24 H7           2.2490     0.9010     4.1150 h1         1 PV1       0.060950
     25 H8           2.2490    -0.9010     4.1150 h1         1 PV1       0.060950
     26 H9           4.0110    -0.8890     1.0650 h1         1 PV1       0.060950
     27 H10          4.0120     0.8880     1.0650 h1         1 PV1       0.060950
     28 H11          6.4490     1.7780     7.6000 ha         1 PV1       0.156000
     29 H12          3.4060    -1.4210     5.3660 ha         1 PV1       0.159000
     30 O3           4.9060     0.4080     9.2060 oh         1 PV1      -0.509100
     31 O2           6.6260     1.7580     4.9890 oh         1 PV1      -0.489100
     32 Br1          2.8530    -1.6290     8.2510 br         1 PV1      -0.072100
@<TRIPOS>BOND
     1    31    15 1
     2     7     6 ar
     3     7     1 ar
     4     6     5 ar
     5     1     2 ar
     6    15    14 ar
     7    15    17 ar
     8     5     9 1
     9     5     4 ar
    10    14    13 ar
    11     9     8 1
    12     3    11 2
    13     2     4 ar
    14     4    10 1
    15    11     8 1
    16    11    17 1
    17     8    10 1
    18    17    16 ar
    19    13    30 1
    20    13    12 ar
    21    16    12 ar
    22    12    32 1
    23     1    18 1
    24     2    19 1
    25    30    20 1
    26     6    21 1
    27    31    22 1
    28     7    23 1
    29     9    24 1
    30     9    25 1
    31    10    26 1
    32    10    27 1
    33    14    28 1
    34    16    29 1
@<TRIPOS>SUBSTRUCTURE
     1 PV1         1 TEMP              0 ****  ****    0 ROOT
