@<TRIPOS>MOLECULE
PV1
   32    34     1     0     0
SMALL
bcc


@<TRIPOS>ATOM
      1 C6           0.0000     0.0000     0.0000 ca         1 PV1      -0.097000
      2 C5           1.3810     0.0000     0.0000 ca         1 PV1      -0.070000
      3 O1           5.9450    -0.0890     3.0100 o          1 PV1      -0.630100
      4 C4           2.0760     0.0000     1.1970 ca         1 PV1      -0.114300
      5 C3           1.3880     0.0000     2.3940 ca         1 PV1      -0.114300
      6 C2           0.0030    -0.0000     2.3940 ca         1 PV1      -0.070000
      7 C1          -0.6890     0.0060     1.1990 ca         1 PV1      -0.097000
      8 N1           3.7260    -0.0000     2.9430 n          1 PV1      -0.159800
      9 C7           2.3810    -0.0000     3.5280 c3         1 PV1       0.115800
     10 C8           3.5560    -0.0000     1.4870 c3         1 PV1       0.115800
     11 C9           4.8940    -0.0000     3.6150 c          1 PV1       0.644700
     12 C14          4.0320    -0.5700     7.2200 ca         1 PV1      -0.044900
     13 C13          4.9060     0.3120     7.8520 ca         1 PV1       0.197100
     14 C12          5.7740     1.0910     7.1040 ca         1 PV1      -0.230000
     15 C11          5.7770     0.9960     5.7230 ca         1 PV1       0.224100
     16 C15          4.0290    -0.6770     5.8490 ca         1 PV1      -0.030000
     17 C10          4.8980     0.1080     5.0840 ca         1 PV1      -0.196600
     18 H1          -0.5430     0.0050    -0.9380 ha         1 PV1       0.105500
     19 H2           1.9210    -0.0050    -0.9390 ha         1 PV1       0.105000
     20 H3           4.3770     1.1430     9.4690 ho         1 PV1       0.412000
     21 H4          -0.5370     0.0050     3.3330 ha         1 PV1       0.105000
     22 H5           7.5030     1.6590     5.3200 ho         1 PV1       0.415000
     23 H6          -1.7720     0.0060     1.2010 ha         1 PV1       0.105500
     24 H7           2.2490     0.9010     4.1150 h1         1 PV1       0.028450
     25 H8           2.2490    -0.9010     4.1150 h1         1 PV1       0.028450
     26 H9           4.0110    -0.8890     1.0650 h1         1 PV1       0.028450
     27 H10          4.0120     0.8880     1.0650 h1         1 PV1       0.028450
     28 H11          6.4490     1.7780     7.6000 ha         1 PV1       0.130000
     29 H12          3.4060    -1.4210     5.3660 ha         1 PV1       0.129000
     30 O3           4.9060     0.4080     9.2060 oh         1 PV1      -0.491100
     31 O2           6.6260     1.7580     4.9890 oh         1 PV1      -0.472100
     32 Br1          2.8530    -1.6290     8.2510 br         1 PV1      -0.100100
@<TRIPOS>BOND
     1     1     2 ar  
     2     1     7 ar  
     3     1    18 1   
     4     2     4 ar  
     5     2    19 1   
     6     3    11 2   
     7     4     5 ar  
     8     4    10 1   
     9     5     6 ar  
    10     5     9 1   
    11     6     7 ar  
    12     6    21 1   
    13     7    23 1   
    14     8     9 1   
    15     8    10 1   
    16     8    11 1   
    17     9    24 1   
    18     9    25 1   
    19    10    26 1   
    20    10    27 1   
    21    11    17 1   
    22    12    13 ar  
    23    12    16 ar  
    24    12    32 1   
    25    13    14 ar  
    26    13    30 1   
    27    14    15 ar  
    28    14    28 1   
    29    15    17 ar  
    30    15    31 1   
    31    16    17 ar  
    32    16    29 1   
    33    20    30 1   
    34    22    31 1   
@<TRIPOS>SUBSTRUCTURE
     1 PV1         1 TEMP              0 ****  ****    0 ROOT
