@<TRIPOS>MOLECULE
molecule
   33    35     1     0     0
SMALL
bcc


@<TRIPOS>ATOM
      1 O2           0.0000     0.0000     0.0000 oh         1 PV2      -0.522100
      2 C2           4.1290     0.0000     0.0000 ca         1 PV2      -0.346500
      3 C1           3.4370     0.0000     1.1960 ca         1 PV2       0.007000
      4 C4           2.0500    -0.0010    -1.2040 ca         1 PV2      -0.246000
      5 C5           1.3590    -0.0010    -0.0030 ca         1 PV2       0.186100
      6 C6           2.0550     0.0000     1.1980 ca         1 PV2      -0.199000
      7 C3           3.4370    -0.0000    -1.2030 ca         1 PV2       0.231100
      8 O3           6.2890     1.0280    -0.9030 o          1 PV2      -0.628300
      9 C11          7.4430    -5.0360    -0.8120 ca         1 PV2      -0.107000
     10 C12          7.7990    -5.7820    -1.9180 ca         1 PV2      -0.125000
     11 C13          7.7960    -5.2020    -3.1730 ca         1 PV2      -0.125000
     12 C14          7.4360    -3.8760    -3.3200 ca         1 PV2      -0.107000
     13 O4           6.2900    -0.0230     1.3660 o          1 PV2      -0.628300
     14 O1           4.1180    -0.0010    -2.3790 oh         1 PV2      -0.512100
     15 N            6.3870    -1.4260    -0.6620 n3         1 PV2      -0.825500
     16 C10          6.6490    -1.6880    -2.0810 c3         1 PV2       0.291100
     17 C9           7.0770    -3.1270    -2.2110 ca         1 PV2      -0.101800
     18 C8           7.0810    -3.7070    -0.9570 ca         1 PV2      -0.101800
     19 C7           6.6500    -2.6790     0.0560 c3         1 PV2       0.291100
     20 H1          -0.3150    -0.8890    -0.0210 ho         1 PV2       0.430000
     21 H2           3.9780     0.0010     2.1340 ha         1 PV2       0.165000
     22 H3           1.5080    -0.0010    -2.1420 ha         1 PV2       0.149000
     23 H4           1.5150     0.0000     2.1370 ha         1 PV2       0.150000
     24 H6           8.0810    -6.8210    -1.8030 ha         1 PV2       0.133000
     25 H7           8.0750    -5.7870    -4.0410 ha         1 PV2       0.133000
     26 H8           7.4330    -3.4220    -4.3030 ha         1 PV2       0.131500
     27 H9           3.7320     0.6290    -2.9660 ho         1 PV2       0.443000
     28 H10          7.4540    -1.0460    -2.4170 h1         1 PV2       0.060450
     29 H11          5.7350    -1.5370    -2.6440 h1         1 PV2       0.060450
     30 H12          5.7470    -3.0110     0.5540 h1         1 PV2       0.060450
     31 H13          7.4400    -2.5260     0.7810 h1         1 PV2       0.060450
     32 S            5.8910     0.0060     0.0020 sy         1 PV2       1.460200
     33 H5           7.4450    -5.4910     0.1710 ha         1 PV2       0.131500
@<TRIPOS>BOND
     1    10     9 ar
     2    10    11 ar
     3    14     7 1
     4     9    18 ar
     5    11    12 ar
     6    18    19 1
     7    18    17 ar
     8    19    15 1
     9    12    17 ar
    10    17    16 1
    11     7     4 ar
    12     7     2 ar
    13     4     5 ar
    14    15    16 1
    15    15    32 1
    16     8    32 2
    17    32     2 1
    18    32    13 2
    19     2     3 ar
    20     5     1 1
    21     5     6 ar
    22     3     6 ar
    23     1    20 1
    24     3    21 1
    25     4    22 1
    26     6    23 1
    27     9    33 1
    28    10    24 1
    29    11    25 1
    30    12    26 1
    31    14    27 1
    32    16    28 1
    33    16    29 1
    34    19    30 1
    35    19    31 1
@<TRIPOS>SUBSTRUCTURE
     1 PV2         1 TEMP              0 ****  ****    0 ROOT
