@<TRIPOS>MOLECULE
PV2
   33    35     1     0     0
SMALL
bcc


@<TRIPOS>ATOM
      1 O2           0.0000     0.0000     0.0000 oh         1 PV2      -0.503100
      2 C2           4.1290     0.0000     0.0000 ca         1 PV2      -0.210500
      3 C1           3.4370     0.0000     1.1960 ca         1 PV2       0.055000
      4 C4           2.0500    -0.0010    -1.2040 ca         1 PV2      -0.252000
      5 C5           1.3590    -0.0010    -0.0030 ca         1 PV2       0.210100
      6 C6           2.0550     0.0000     1.1980 ca         1 PV2      -0.200000
      7 C3           3.4370    -0.0000    -1.2030 ca         1 PV2       0.261100
      8 O3           6.2890     1.0280    -0.9030 o          1 PV2      -0.580800
      9 C11          7.4430    -5.0360    -0.8120 ca         1 PV2      -0.074500
     10 C12          7.7990    -5.7820    -1.9180 ca         1 PV2      -0.101000
     11 C13          7.7960    -5.2020    -3.1730 ca         1 PV2      -0.101000
     12 C14          7.4360    -3.8760    -3.3200 ca         1 PV2      -0.074500
     13 O4           6.2900    -0.0230     1.3660 o          1 PV2      -0.580800
     14 O1           4.1180    -0.0010    -2.3790 oh         1 PV2      -0.490100
     15 N            6.3870    -1.4260    -0.6620 n3         1 PV2      -0.551500
     16 C10          6.6490    -1.6880    -2.0810 c3         1 PV2       0.314100
     17 C9           7.0770    -3.1270    -2.2110 ca         1 PV2      -0.115300
     18 C8           7.0810    -3.7070    -0.9570 ca         1 PV2      -0.115300
     19 C7           6.6500    -2.6790     0.0560 c3         1 PV2       0.314100
     20 H1          -0.3150    -0.8890    -0.0210 ho         1 PV2       0.412000
     21 H2           3.9780     0.0010     2.1340 ha         1 PV2       0.131000
     22 H3           1.5080    -0.0010    -2.1420 ha         1 PV2       0.127000
     23 H4           1.5150     0.0000     2.1370 ha         1 PV2       0.123000
     24 H6           8.0810    -6.8210    -1.8030 ha         1 PV2       0.103500
     25 H7           8.0750    -5.7870    -4.0410 ha         1 PV2       0.103500
     26 H8           7.4330    -3.4220    -4.3030 ha         1 PV2       0.102500
     27 H9           3.7320     0.6290    -2.9660 ho         1 PV2       0.422000
     28 H10          7.4540    -1.0460    -2.4170 h1         1 PV2       0.020700
     29 H11          5.7350    -1.5370    -2.6440 h1         1 PV2       0.020700
     30 H12          5.7470    -3.0110     0.5540 h1         1 PV2       0.020700
     31 H13          7.4400    -2.5260     0.7810 h1         1 PV2       0.020700
     32 S            5.8910     0.0060     0.0020 sy         1 PV2       1.087200
     33 H5           7.4450    -5.4910     0.1710 ha         1 PV2       0.102500
@<TRIPOS>BOND
     1     1     5 1   
     2     1    20 1   
     3     2     3 ar  
     4     2     7 ar  
     5     2    32 1   
     6     3     6 ar  
     7     3    21 1   
     8     4     5 ar  
     9     4     7 ar  
    10     4    22 1   
    11     5     6 ar  
    12     6    23 1   
    13     7    14 1   
    14     8    32 2   
    15     9    10 ar  
    16     9    18 ar  
    17     9    33 1   
    18    10    11 ar  
    19    10    24 1   
    20    11    12 ar  
    21    11    25 1   
    22    12    17 ar  
    23    12    26 1   
    24    13    32 2   
    25    14    27 1   
    26    15    16 1   
    27    15    19 1   
    28    15    32 1   
    29    16    17 1   
    30    16    28 1   
    31    16    29 1   
    32    17    18 ar  
    33    18    19 1   
    34    19    30 1   
    35    19    31 1   
@<TRIPOS>SUBSTRUCTURE
     1 PV2         1 TEMP              0 ****  ****    0 ROOT
