@<TRIPOS>MOLECULE
molecule
   33    34     1     0     0
SMALL
bcc


@<TRIPOS>ATOM
      1 O17          0.0000     0.0000     0.0000 oh         1 PV4      -0.503100
      2 C6           1.3600     0.0000     0.0000 ca         1 PV4       0.085100
      3 C5           2.0580     0.0000     1.2040 ca         1 PV4       0.118100
      4 O7           1.3820    -0.0020     2.3840 os         1 PV4      -0.236200
      5 C8           2.1040     0.0080     3.5340 ca         1 PV4       0.097100
      6 C13          2.4630     1.2150     4.1190 ca         1 PV4      -0.136500
      7 C12          3.1990     1.2220     5.2880 ca         1 PV4      -0.121000
      8 C11          3.5770     0.0290     5.8760 ca         1 PV4      -0.129000
      9 C10          3.2190    -1.1740     5.2970 ca         1 PV4      -0.121000
     10 C9           2.4810    -1.1870     4.1290 ca         1 PV4      -0.136500
     11 C4           3.4430     0.0000     1.1990 ca         1 PV4      -0.194000
     12 C3           4.1290     0.0020    -0.0010 ca         1 PV4      -0.102000
     13 C2           3.4370     0.0020    -1.1980 ca         1 PV4      -0.100300
     14 C1           2.0540    -0.0040    -1.1990 ca         1 PV4      -0.134000
     15 C14          4.1900     0.0030    -2.5030 c3         1 PV4      -0.032100
     16 C15          4.4460    -1.4380    -2.9450 c3         1 PV4      -0.080400
     17 C16          5.2110    -1.4370    -4.2700 c3         1 PV4      -0.093100
     18 H17         -0.3140     0.8380    -0.2960 ho         1 PV4       0.415000
     19 H1           1.5130    -0.0040    -2.1380 ha         1 PV4       0.143000
     20 H4           3.9890     0.0000     2.1350 ha         1 PV4       0.148000
     21 H13          2.1670     2.1500     3.6590 ha         1 PV4       0.145000
     22 H9           2.2010    -2.1300     3.6760 ha         1 PV4       0.145000
     23 H12          3.4800     2.1630     5.7450 ha         1 PV4       0.135000
     24 H11          4.1550     0.0380     6.7920 ha         1 PV4       0.132000
     25 H10          3.5150    -2.1070     5.7610 ha         1 PV4       0.135000
     26 H3           5.2130     0.0040    -0.0040 ha         1 PV4       0.134000
     27 H141         3.6050     0.5140    -3.2580 hc         1 PV4       0.047700
     28 H142         5.1370     0.5150    -2.3730 hc         1 PV4       0.047700
     29 H151         5.0320    -1.9490    -2.1910 hc         1 PV4       0.045700
     30 H152         3.5000    -1.9500    -3.0750 hc         1 PV4       0.045700
     31 H161         5.3920    -2.4580    -4.5840 hc         1 PV4       0.033700
     32 H162         6.1570    -0.9260    -4.1410 hc         1 PV4       0.033700
     33 H163         4.6250    -0.9260    -5.0250 hc         1 PV4       0.033700
@<TRIPOS>BOND
     1     1     2 1
     2     2     3 ar
     3     2    14 ar
     4     3     4 1
     5     3    11 ar
     6     4     5 1
     7     5     6 ar
     8     5    10 ar
     9     6     7 ar
    10     7     8 ar
    11     8     9 ar
    12     9    10 ar
    13    11    12 ar
    14    12    13 ar
    15    13    14 ar
    16    13    15 1
    17    15    16 1
    18    16    17 1
    19     1    18 1
    20    14    19 1
    21    11    20 1
    22     6    21 1
    23    10    22 1
    24     7    23 1
    25     8    24 1
    26     9    25 1
    27    12    26 1
    28    15    27 1
    29    15    28 1
    30    16    29 1
    31    16    30 1
    32    17    31 1
    33    17    32 1
    34    17    33 1
@<TRIPOS>SUBSTRUCTURE
     1 PV4         1 TEMP              0 ****  ****    0 ROOT
