@<TRIPOS>MOLECULE
PV4
   33    34     1     0     0
SMALL
bcc


@<TRIPOS>ATOM
      1 O17         0.2530    0.4450    0.3720 oh        1 PV4     -0.492100
      2 C6          1.6060    0.4470    0.1450 ca        1 PV4      0.133100
      3 C5          2.5450    0.8190    1.1270 ca        1 PV4     -0.002900
      4 O7          2.0380    1.3040    2.3320 os        1 PV4     -0.260200
      5 C8          2.4230    0.6210    3.4840 ca        1 PV4      0.107100
      6 C13         2.1790    1.3090    4.6840 ca        1 PV4     -0.165500
      7 C12         2.4850    0.6830    5.8890 ca        1 PV4     -0.103000
      8 C11         3.0290   -0.6030    5.9020 ca        1 PV4     -0.155000
      9 C10         3.2700   -1.2720    4.7030 ca        1 PV4     -0.103000
     10 C9          2.9690   -0.6660    3.4830 ca        1 PV4     -0.165500
     11 C4          3.9120    0.8180    0.8350 ca        1 PV4     -0.105000
     12 C3          4.3380    0.4420   -0.4340 ca        1 PV4     -0.155000
     13 C2          3.4120    0.0690   -1.4200 ca        1 PV4     -0.046300
     14 C1          2.0460    0.0730   -1.1340 ca        1 PV4     -0.151000
     15 C14         3.8900   -0.3190   -2.7760 c3        1 PV4     -0.041100
     16 C15         4.5550   -1.6840   -2.7690 c3        1 PV4     -0.077400
     17 C16         5.0660   -2.0490   -4.1390 c3        1 PV4     -0.094100
     18 H17         0.1050    0.7260    1.2890 ho        1 PV4      0.437000
     19 H1          1.3030   -0.2110   -1.8930 ha        1 PV4      0.154000
     20 H4          4.6330    1.1120    1.6120 ha        1 PV4      0.149000
     21 H13         1.7510    2.3210    4.6570 ha        1 PV4      0.149500
     22 H9          3.1590   -1.1890    2.5340 ha        1 PV4      0.149500
     23 H12         2.2960    1.2100    6.8360 ha        1 PV4      0.135000
     24 H11         3.2680   -1.0870    6.8590 ha        1 PV4      0.134000
     25 H10         3.6990   -2.2850    4.7130 ha        1 PV4      0.135000
     26 H3          5.4120    0.4390   -0.6710 ha        1 PV4      0.138000
     27 H141        3.0320   -0.3290   -3.5000 hc        1 PV4      0.051700
     28 H142        4.6240    0.4490   -3.1420 hc        1 PV4      0.051700
     29 H151        3.8200   -2.4560   -2.4210 hc        1 PV4      0.043700
     30 H152        5.4040   -1.6790   -2.0350 hc        1 PV4      0.043700
     31 H161        4.2290   -2.0770   -4.8780 hc        1 PV4      0.034700
     32 H162        5.5490   -3.0550   -4.1150 hc        1 PV4      0.034700
     33 H163        5.8190   -1.3040   -4.4920 hc        1 PV4      0.034700
@<TRIPOS>BOND
     1    1    2 1   
     2    1   18 1   
     3    2    3 ar  
     4    2   14 ar  
     5    3    4 1   
     6    3   11 ar  
     7    4    5 1   
     8    5    6 ar  
     9    5   10 ar  
    10    6    7 ar  
    11    6   21 1   
    12    7    8 ar  
    13    7   23 1   
    14    8    9 ar  
    15    8   24 1   
    16    9   10 ar  
    17    9   25 1   
    18   10   22 1   
    19   11   12 ar  
    20   11   20 1   
    21   12   13 ar  
    22   12   26 1   
    23   13   14 ar  
    24   13   15 1   
    25   14   19 1   
    26   15   16 1   
    27   15   27 1   
    28   15   28 1   
    29   16   17 1   
    30   16   29 1   
    31   16   30 1   
    32   17   31 1   
    33   17   32 1   
    34   17   33 1   
@<TRIPOS>SUBSTRUCTURE
     1 PV4         1 TEMP              0 ****  ****    0 ROOT
