@<TRIPOS>MOLECULE
PV8
   34    36     1     0     0
SMALL
bcc


@<TRIPOS>ATOM
      1 C11          0.0000     0.0000     0.0000 c3         1 PV8       0.311100
      2 C02          1.7190     2.4950    -2.1740 ca         1 PV8       0.262100
      3 C03          1.9630     3.8210    -2.4990 ca         1 PV8      -0.253000
      4 C04          3.2490     4.3300    -2.4040 ca         1 PV8       0.211100
      5 O05          3.4920     5.6280    -2.7210 oh         1 PV8      -0.503100
      6 C06          4.2890     3.5120    -1.9840 ca         1 PV8      -0.199000
      7 C07          4.0440     2.1910    -1.6620 ca         1 PV8       0.056000
      8 C08          2.7620     1.6820    -1.7510 ca         1 PV8      -0.211500
      9 S09          2.4520    -0.0010    -1.3310 sy         1 PV8       1.090200
     10 N10          1.4660     0.0000     0.0000 n3         1 PV8      -0.549500
     11 C12         -0.4600    -0.0010     1.4370 ca         1 PV8      -0.127300
     12 C13          0.6490    -0.0010     2.2590 ca         1 PV8      -0.096300
     13 C14          0.4900    -0.0010     3.6340 ca         1 PV8      -0.115000
     14 C15         -0.7810    -0.0020     4.1870 ca         1 PV8       0.124100
     15 O16         -0.9380    -0.0020     5.5360 oh         1 PV8      -0.500100
     16 C17         -1.8940    -0.0020     3.3580 ca         1 PV8      -0.136000
     17 C18         -1.7310    -0.0020     1.9850 ca         1 PV8      -0.056000
     18 C19          1.8920     0.0000     1.4030 c3         1 PV8       0.317100
     19 O20          1.6870    -0.5450    -2.3970 o          1 PV8      -0.581300
     20 O21          3.6950    -0.5440    -0.9090 o          1 PV8      -0.581300
     21 H1          -0.3660     0.8880    -0.5010 h1         1 PV8       0.024200
     22 H2          -0.3660    -0.8880    -0.5020 h1         1 PV8       0.024200
     23 H3           0.0700     2.2690    -3.0780 ho         1 PV8       0.423000
     24 H4           1.1420     4.4710    -2.7740 ha         1 PV8       0.127000
     25 H5           3.3540     6.1680    -1.9600 ho         1 PV8       0.412000
     26 H6           5.2940     3.9090    -1.9120 ha         1 PV8       0.123000
     27 H7           4.8560     1.5540    -1.3330 ha         1 PV8       0.131000
     28 H8           1.3600     0.0040     4.2790 ha         1 PV8       0.114000
     29 H9          -0.9310    -0.8900     5.8540 ho         1 PV8       0.403000
     30 H10         -2.8900    -0.0030     3.7860 ha         1 PV8       0.115000
     31 H11         -2.6000    -0.0010     1.3380 ha         1 PV8       0.104000
     32 H12          2.4770     0.8880     1.6080 h1         1 PV8       0.015700
     33 H13          2.4780    -0.8880     1.6070 h1         1 PV8       0.015700
     34 O01          0.4600     1.9920    -2.2660 oh         1 PV8      -0.491100
@<TRIPOS>BOND
     1     1    10 1   
     2     1    11 1   
     3     1    21 1   
     4     1    22 1   
     5     2     3 ar  
     6     2     8 ar  
     7     2    34 1   
     8     3     4 ar  
     9     3    24 1   
    10     4     5 1   
    11     4     6 ar  
    12     5    25 1   
    13     6     7 ar  
    14     6    26 1   
    15     7     8 ar  
    16     7    27 1   
    17     8     9 1   
    18     9    10 1   
    19     9    19 2   
    20     9    20 2   
    21    10    18 1   
    22    11    12 ar  
    23    11    17 ar  
    24    12    13 ar  
    25    12    18 1   
    26    13    14 ar  
    27    13    28 1   
    28    14    15 1   
    29    14    16 ar  
    30    15    29 1   
    31    16    17 ar  
    32    16    30 1   
    33    17    31 1   
    34    18    32 1   
    35    18    33 1   
    36    23    34 1   
@<TRIPOS>SUBSTRUCTURE
     1 PV8         1 TEMP              0 ****  ****    0 ROOT
