@<TRIPOS>MOLECULE
PVA
   19    18     1     0     0
SMALL
bcc


@<TRIPOS>ATOM
      1 C1          1.4470    0.1730   -0.0400 c3        1 PVA     -0.011700
      2 C2         -0.0760    0.0210    0.0310 c3        1 PVA      0.027300
      3 C3         -0.7480    1.1800    0.7340 c3        1 PVA     -0.070100
      4 CM         -0.6520   -0.1600   -1.3600 c3        1 PVA     -0.070100
      5 N           2.0660    0.0500    1.2460 n3        1 PVA     -0.882800
      6 P           2.5430    1.7050   -0.8600 p5        1 PVA      1.190700
      7 O1P         2.2200    2.9460   -0.0850 o         1 PVA     -0.925167
      8 O2P         3.9100    1.1250   -0.6110 o         1 PVA     -0.925167
      9 O3P         2.0660    1.6780   -2.2840 o         1 PVA     -0.925167
     10 H1          1.8050   -0.6060   -0.7680 h1        1 PVA     -0.021300
     11 H2         -0.3320   -0.9160    0.6190 hc        1 PVA     -0.052300
     12 H31        -0.6560    2.1150    0.1330 hc        1 PVA      0.010533
     13 H32        -0.2720    1.3570    1.7270 hc        1 PVA      0.010533
     14 H33        -1.8380    0.9680    0.8930 hc        1 PVA      0.010533
     15 HM1        -1.7710   -0.1860   -1.3250 hc        1 PVA      0.010533
     16 HM2        -0.2970   -1.1210   -1.8040 hc        1 PVA      0.010533
     17 HM3        -0.3260    0.6740   -2.0300 hc        1 PVA      0.010533
     18 HN1         2.2400   -0.9190    1.4640 hn        1 PVA      0.300800
     19 HN2         2.9660    0.5040    1.2160 hn        1 PVA      0.300800
@<TRIPOS>BOND
     1    1    2 1
     2    1    5 1
     3    1    6 1
     4    1   10 1
     5    2    3 1
     6    2    4 1
     7    2   11 1
     8    3   12 1
     9    3   13 1
    10    3   14 1
    11    4   15 1
    12    4   16 1
    13    4   17 1
    14    5   18 1
    15    5   19 1
    16    6    7 1
    17    6    8 1
    18    6    9 1
@<TRIPOS>SUBSTRUCTURE
     1 PVA         1 TEMP              0 ****  ****    0 ROOT
