@<TRIPOS>MOLECULE
PVB
   54    56     1     0     0
SMALL
bcc


@<TRIPOS>ATOM
      1 N1           0.0000     0.0000     0.0000 nb         1 PVB      -0.759000
      2 C9           3.2420    -0.0010     4.0650 c3         1 PVB      -0.059000
      3 N9           1.8500    -0.0010     3.6060 na         1 PVB       0.198000
      4 C4           1.4260    -0.0000     2.3010 ca         1 PVB       0.315800
      5 N3           2.0340     0.0000     1.1190 nb         1 PVB      -0.785000
      6 C2           1.3270     0.0000     0.0000 ca         1 PVB       0.780900
      7 C6          -0.6870     0.0000     1.1360 ca         1 PVB       0.618200
      8 C5           0.0230     0.0000     2.3500 ca         1 PVB      -0.298200
      9 N7          -0.3320    -0.0000     3.6590 nc         1 PVB      -0.475100
     10 C8           0.7390    -0.0010     4.3980 cd         1 PVB       0.194700
     11 N6          -2.0720     0.0010     1.1260 nu         1 PVB      -0.241300
     12 C1A         -2.7590    -0.1530    -0.0740 ca         1 PVB      -0.055400
     13 C2A         -3.9690     0.5070    -0.2710 ca         1 PVB      -0.161000
     14 C3A         -4.6520     0.3570    -1.4570 ca         1 PVB      -0.044000
     15 C4A         -4.1290    -0.4590    -2.4640 ca         1 PVB      -0.100600
     16 C5A         -2.9120    -1.1210    -2.2640 ca         1 PVB      -0.001600
     17 Cl1         -2.2590    -2.1360    -3.5110 cl         1 PVB      -0.005400
     18 C6A         -2.2320    -0.9620    -1.0770 ca         1 PVB      -0.131000
     19 CX          -4.8580    -0.6220    -3.7350 c          1 PVB       0.970200
     20 OX1         -6.0300     0.0160    -3.9260 o          1 PVB      -0.878300
     21 OX2         -4.4020    -1.3310    -4.6100 o          1 PVB      -0.878300
     22 N2           1.9960    -0.0010    -1.2130 nu         1 PVB      -0.477900
     23 C12          3.4560     0.1150    -1.2450 c3         1 PVB       0.128500
     24 C13          3.8470     1.5860    -1.4040 c3         1 PVB      -0.064700
     25 C16          3.3860     2.3720    -0.1740 c3         1 PVB      -0.002600
     26 C14          5.3670     1.6980    -1.5410 c3         1 PVB      -0.002600
     27 C15          4.0060    -0.6890    -2.4240 c3         1 PVB       0.203400
     28 O1           3.5550    -0.1080    -3.6490 oh         1 PVB      -0.587800
     29 C11          3.5010     1.2480     4.9100 c3         1 PVB      -0.012100
     30 C10          3.4990    -1.2510     4.9100 c3         1 PVB      -0.012100
     31 H9           3.9050    -0.0020     3.2090 h1         1 PVB       0.060700
     32 H111         3.0300     1.1330     5.8780 hc         1 PVB       0.012033
     33 H112         3.0880     2.1150     4.4080 hc         1 PVB       0.012033
     34 H113         4.5680     1.3800     5.0400 hc         1 PVB       0.012033
     35 H101         2.9530    -1.1760     5.8420 hc         1 PVB       0.012033
     36 H102         4.5590    -1.3330     5.1190 hc         1 PVB       0.012033
     37 H103         3.1690    -2.1280     4.3670 hc         1 PVB       0.012033
     38 H8           0.7480    -0.0010     5.4810 h5         1 PVB       0.024800
     39 H2           1.4850    -0.1240    -2.0650 hn         1 PVB       0.318800
     40 H6          -2.5780     0.0830     1.9850 hn         1 PVB       0.289800
     41 H2A         -4.3730     1.1400     0.5100 ha         1 PVB       0.091000
     42 H6A         -1.2900    -1.4730    -0.9200 ha         1 PVB       0.126000
     43 H3A         -5.5930     0.8710    -1.6090 ha         1 PVB       0.132000
     44 H12          3.8690    -0.2700    -0.3210 h1         1 PVB       0.062700
     45 H13          3.3730     1.9920    -2.2900 hc         1 PVB       0.046700
     46 H151         5.0890    -0.6770    -2.3960 h1         1 PVB      -0.007800
     47 H152         3.6550    -1.7120    -2.3580 h1         1 PVB      -0.007800
     48 H161         3.7330     1.8750     0.7230 hc         1 PVB       0.004367
     49 H162         3.7950     3.3750    -0.2130 hc         1 PVB       0.004367
     50 H163         2.3040     2.4240    -0.1630 hc         1 PVB       0.004367
     51 H141         5.6830     2.6920    -1.2480 hc         1 PVB       0.004367
     52 H142         5.6510     1.5170    -2.5700 hc         1 PVB       0.004367
     53 H143         5.8420     0.9650    -0.9010 hc         1 PVB       0.004367
     54 H1           3.8240    -0.6500    -4.3720 ho         1 PVB       0.389000
@<TRIPOS>BOND
     1     1     6 ar  
     2     1     7 ar  
     3     2     3 1   
     4     2    29 1   
     5     2    30 1   
     6     2    31 1   
     7     3     4 1   
     8     3    10 1   
     9     4     5 ar  
    10     4     8 ar  
    11     5     6 ar  
    12     6    22 1   
    13     7     8 ar  
    14     7    11 1   
    15     8     9 1   
    16     9    10 2   
    17    10    38 1   
    18    11    12 1   
    19    11    40 1   
    20    12    13 ar  
    21    12    18 ar  
    22    13    14 ar  
    23    13    41 1   
    24    14    15 ar  
    25    14    43 1   
    26    15    16 ar  
    27    15    19 1   
    28    16    17 1   
    29    16    18 ar  
    30    18    42 1   
    31    19    20 1   
    32    19    21 1   
    33    22    23 1   
    34    22    39 1   
    35    23    24 1   
    36    23    27 1   
    37    23    44 1   
    38    24    25 1   
    39    24    26 1   
    40    24    45 1   
    41    25    48 1   
    42    25    49 1   
    43    25    50 1   
    44    26    51 1   
    45    26    52 1   
    46    26    53 1   
    47    27    28 1   
    48    27    46 1   
    49    27    47 1   
    50    28    54 1   
    51    29    32 1   
    52    29    33 1   
    53    29    34 1   
    54    30    35 1   
    55    30    36 1   
    56    30    37 1   
@<TRIPOS>SUBSTRUCTURE
     1 PVB         1 TEMP              0 ****  ****    0 ROOT
