@<TRIPOS>MOLECULE
PVC
   69    68     1     0     0
SMALL
bcc


@<TRIPOS>ATOM
      1 CP1         0.5240   -0.9110   -0.1000 c         1 PVC      0.633100
      2 OP          1.6250   -1.4500   -0.2510 o         1 PVC     -0.562000
      3 CP2        -0.2710   -0.7710    1.1640 c3        1 PVC     -0.130400
      4 CP3         0.6360   -0.5910    2.3620 c3        1 PVC     -0.078400
      5 CP4        -0.1630   -0.5900    3.6480 c3        1 PVC     -0.078400
      6 CP5         0.7380   -0.3940    4.8490 c3        1 PVC     -0.079400
      7 CP6        -0.0570   -0.3990    6.1370 c3        1 PVC     -0.078400
      8 CP7         0.8440   -0.2050    7.3380 c3        1 PVC     -0.079400
      9 CP8         0.0500   -0.2120    8.6270 c3        1 PVC     -0.078400
     10 CP9         0.9510   -0.0200    9.8290 c3        1 PVC     -0.079400
     11 CPA         0.1570   -0.0270   11.1170 c3        1 PVC     -0.078400
     12 CPB         1.0580    0.1640   12.3190 c3        1 PVC     -0.079400
     13 CPC         0.2640    0.1570   13.6080 c3        1 PVC     -0.078400
     14 CPD         1.1650    0.3470   14.8090 c3        1 PVC     -0.079400
     15 CC6         0.5390   -0.4690   -2.4530 c3        1 PVC      0.146400
     16 CC5        -0.5460   -0.2170   -3.4990 c3        1 PVC      0.112100
     17 CC4         0.0990    0.2350   -4.8280 c3        1 PVC      0.177300
     18 CC3        -0.9660    0.6620   -5.7900 c2        1 PVC     -0.077100
     19 CC2        -1.3080    1.9410   -6.0640 ce        1 PVC     -0.035100
     20 CC1        -0.7040    3.2200   -5.4970 c         1 PVC      0.908800
     21 O2         -2.3190    2.1300   -6.9870 oh        1 PVC     -0.566100
     22 O3         -1.5960   -0.4330   -6.3770 oh        1 PVC     -0.560100
     23 O4          0.8960   -0.8080   -5.3600 oh        1 PVC     -0.600800
     24 O5         -1.2440   -1.4460   -3.6620 oh        1 PVC     -0.625800
     25 O6         -0.1110   -0.3680   -1.1710 os        1 PVC     -0.428900
     26 OC1         0.1870    3.1580   -4.6120 o         1 PVC     -0.816300
     27 OC2        -1.1770    4.2870   -5.9870 o         1 PVC     -0.816300
     28 CPE         0.3710    0.3410   16.0980 c3        1 PVC     -0.079400
     29 CPF         1.2710    0.5300   17.3010 c3        1 PVC     -0.080400
     30 CPG         0.4840    0.5260   18.5860 c3        1 PVC     -0.092100
     31 HP21       -0.9760    0.0970    1.0680 hc        1 PVC      0.074700
     32 HP22       -0.8880   -1.7020    1.2750 hc        1 PVC      0.074700
     33 HP31        1.3970   -1.4150    2.3810 hc        1 PVC      0.056200
     34 HP32        1.1980    0.3750    2.2640 hc        1 PVC      0.056200
     35 HP41       -0.7180   -1.5600    3.7480 hc        1 PVC      0.038700
     36 HP42       -0.9300    0.2280    3.6150 hc        1 PVC      0.038700
     37 HP51        1.2890    0.5780    4.7500 hc        1 PVC      0.041700
     38 HP52        1.5080   -1.2100    4.8770 hc        1 PVC      0.041700
     39 HP61       -0.8260    0.4170    6.1080 hc        1 PVC      0.038700
     40 HP62       -0.6100   -1.3710    6.2340 hc        1 PVC      0.038700
     41 HP71        1.3960    0.7660    7.2410 hc        1 PVC      0.039700
     42 HP72        1.6140   -1.0210    7.3670 hc        1 PVC      0.039700
     43 HP81       -0.5030   -1.1830    8.7230 hc        1 PVC      0.038700
     44 HP82       -0.7190    0.6050    8.5990 hc        1 PVC      0.038700
     45 HP91        1.5030    0.9520    9.7320 hc        1 PVC      0.039200
     46 HP92        1.7200   -0.8360    9.8560 hc        1 PVC      0.039200
     47 HPA1       -0.3970   -0.9980   11.2130 hc        1 PVC      0.039200
     48 HPA2       -0.6120    0.7900   11.0900 hc        1 PVC      0.039200
     49 HPB1        1.6110    1.1350   12.2230 hc        1 PVC      0.039200
     50 HPB2        1.8260   -0.6530   12.3460 hc        1 PVC      0.039200
     51 HPC1       -0.2900   -0.8140   13.7030 hc        1 PVC      0.039200
     52 HPC2       -0.5040    0.9750   13.5800 hc        1 PVC      0.039200
     53 HPD1        1.7190    1.3180   14.7130 hc        1 PVC      0.039200
     54 HPD2        1.9320   -0.4710   14.8360 hc        1 PVC      0.039200
     55 HC61        1.3290    0.3240   -2.4990 h1        1 PVC      0.070200
     56 HC62        0.9930   -1.4860   -2.5760 h1        1 PVC      0.070200
     57 HC5        -1.2550    0.5790   -3.1390 h1        1 PVC      0.072700
     58 HC4         0.8060    1.1000   -4.6440 h1        1 PVC      0.147700
     59 H2         -2.4060    3.0960   -7.1080 ho        1 PVC      0.455000
     60 H3         -2.1120   -0.1020   -7.1240 ho        1 PVC      0.423000
     61 H4          0.2980   -1.5350   -5.5780 ho        1 PVC      0.404000
     62 H5         -1.8570   -1.3170   -4.3990 ho        1 PVC      0.420000
     63 HPE1       -0.1840   -0.6290   16.1930 hc        1 PVC      0.039200
     64 HPE2       -0.3960    1.1590   16.0710 hc        1 PVC      0.039200
     65 HPF1        2.0380   -0.2880   17.3250 hc        1 PVC      0.038200
     66 HPF2        1.8270    1.5000   17.2020 hc        1 PVC      0.038200
     67 HPG1        1.1660    0.6670   19.4590 hc        1 PVC      0.031367
     68 HPG2       -0.0580   -0.4420   18.7140 hc        1 PVC      0.031367
     69 HPG3       -0.2690    1.3510   18.5900 hc        1 PVC      0.031367
@<TRIPOS>BOND
     1    1    2 2   
     2    1    3 1   
     3    1   25 1   
     4    3    4 1   
     5    3   31 1   
     6    3   32 1   
     7    4    5 1   
     8    4   33 1   
     9    4   34 1   
    10    5    6 1   
    11    5   35 1   
    12    5   36 1   
    13    6    7 1   
    14    6   37 1   
    15    6   38 1   
    16    7    8 1   
    17    7   39 1   
    18    7   40 1   
    19    8    9 1   
    20    8   41 1   
    21    8   42 1   
    22    9   10 1   
    23    9   43 1   
    24    9   44 1   
    25   10   11 1   
    26   10   45 1   
    27   10   46 1   
    28   11   12 1   
    29   11   47 1   
    30   11   48 1   
    31   12   13 1   
    32   12   49 1   
    33   12   50 1   
    34   13   14 1   
    35   13   51 1   
    36   13   52 1   
    37   14   28 1   
    38   14   53 1   
    39   14   54 1   
    40   15   16 1   
    41   15   25 1   
    42   15   55 1   
    43   15   56 1   
    44   16   17 1   
    45   16   24 1   
    46   16   57 1   
    47   17   18 1   
    48   17   23 1   
    49   17   58 1   
    50   18   19 2   
    51   18   22 1   
    52   19   20 1   
    53   19   21 1   
    54   20   26 1   
    55   20   27 1   
    56   21   59 1   
    57   22   60 1   
    58   23   61 1   
    59   24   62 1   
    60   28   29 1   
    61   28   63 1   
    62   28   64 1   
    63   29   30 1   
    64   29   65 1   
    65   29   66 1   
    66   30   67 1   
    67   30   68 1   
    68   30   69 1   
@<TRIPOS>SUBSTRUCTURE
     1 PVC         1 TEMP              0 ****  ****    0 ROOT
