@<TRIPOS>MOLECULE
molecule
   69    68     1     0     0
SMALL
bcc


@<TRIPOS>ATOM
      1 CP1          0.0000     0.0000     0.0000 c          1 PVC       0.631100
      2 OP           1.2090     0.0000     0.0000 o          1 PVC      -0.560000
      3 CP2         -0.7530     0.0000     1.3060 c3         1 PVC      -0.129400
      4 CP3          0.2410     0.0010     2.4690 c3         1 PVC      -0.071400
      5 CP4         -0.5230     0.0010     3.7930 c3         1 PVC      -0.084400
      6 CP5          0.4720     0.0020     4.9560 c3         1 PVC      -0.080400
      7 CP6         -0.2930     0.0020     6.2820 c3         1 PVC      -0.082400
      8 CP7          0.7020     0.0030     7.4440 c3         1 PVC      -0.082400
      9 CP8         -0.0630     0.0030     8.7690 c3         1 PVC      -0.082400
     10 CP9          0.9320     0.0050     9.9320 c3         1 PVC      -0.082400
     11 CPA          0.1670     0.0040    11.2580 c3         1 PVC      -0.082400
     12 CPB          1.1620     0.0060    12.4190 c3         1 PVC      -0.082400
     13 CPC          0.3970     0.0050    13.7450 c3         1 PVC      -0.082400
     14 CPD          1.3920     0.0070    14.9080 c3         1 PVC      -0.082400
     15 CC6          0.1190     0.0100    -2.3800 c3         1 PVC       0.121400
     16 CC5         -0.8130     0.0150    -3.5930 c3         1 PVC       0.154100
     17 CC4          0.0150     0.1460    -4.8730 c3         1 PVC       0.205300
     18 CC3         -0.8900     0.0290    -6.0720 c2         1 PVC      -0.053100
     19 CC2         -1.0560     1.0800    -6.8970 ce         1 PVC       0.022900
     20 CC1         -0.2690     2.2950    -6.6990 c          1 PVC       0.849800
     21 O2          -1.9570     1.0090    -7.9170 oh         1 PVC      -0.516100
     22 O3          -1.5360    -1.1320    -6.3180 oh         1 PVC      -0.499100
     23 O4           0.9980    -0.8910    -4.9130 oh         1 PVC      -0.610800
     24 O5          -1.5540    -1.2060    -3.6290 oh         1 PVC      -0.576800
     25 O6          -0.6710     0.0040    -1.1620 os         1 PVC      -0.431900
     26 OC1         -0.7370     3.2270    -6.0720 o          1 PVC      -0.825800
     27 OC2          0.9760     2.3830    -7.2110 o          1 PVC      -0.825800
     28 CPE          0.6270     0.0070    16.2320 c3         1 PVC      -0.081400
     29 CPF          1.6220     0.0080    17.3950 c3         1 PVC      -0.084400
     30 CPG          0.8570     0.0080    18.7210 c3         1 PVC      -0.092100
     31 HP21        -1.3770     0.8840     1.3630 hc         1 PVC       0.067200
     32 HP22        -1.3760    -0.8850     1.3640 hc         1 PVC       0.067200
     33 HP31         0.8650    -0.8830     2.4110 hc         1 PVC       0.058200
     34 HP32         0.8630     0.8860     2.4110 hc         1 PVC       0.058200
     35 HP41        -1.1450    -0.8840     3.8510 hc         1 PVC       0.039200
     36 HP42        -1.1460     0.8850     3.8510 hc         1 PVC       0.039200
     37 HP51         1.0940     0.8860     4.8980 hc         1 PVC       0.043200
     38 HP52         1.0950    -0.8830     4.8990 hc         1 PVC       0.043200
     39 HP61        -0.9160     0.8860     6.3390 hc         1 PVC       0.040200
     40 HP62        -0.9150    -0.8830     6.3400 hc         1 PVC       0.040200
     41 HP71         1.3250    -0.8810     7.3870 hc         1 PVC       0.041700
     42 HP72         1.3240     0.8880     7.3860 hc         1 PVC       0.041700
     43 HP81        -0.6860     0.8870     8.8260 hc         1 PVC       0.040200
     44 HP82        -0.6850    -0.8820     8.8270 hc         1 PVC       0.040200
     45 HP91         1.5560    -0.8790     9.8740 hc         1 PVC       0.041200
     46 HP92         1.5540     0.8900     9.8740 hc         1 PVC       0.041200
     47 HPA1        -0.4570     0.8880    11.3150 hc         1 PVC       0.040700
     48 HPA2        -0.4540    -0.8810    11.3160 hc         1 PVC       0.040700
     49 HPB1         1.7840     0.8920    12.3610 hc         1 PVC       0.040700
     50 HPB2         1.7860    -0.8780    12.3620 hc         1 PVC       0.040700
     51 HPC1        -0.2240    -0.8800    13.8030 hc         1 PVC       0.040700
     52 HPC2        -0.2270     0.8890    13.8020 hc         1 PVC       0.040700
     53 HPD1         2.0160    -0.8760    14.8500 hc         1 PVC       0.040700
     54 HPD2         2.0140     0.8930    14.8500 hc         1 PVC       0.040700
     55 HC61         0.7440    -0.8740    -2.4090 h1         1 PVC       0.063700
     56 HC62         0.7440     0.8950    -2.4010 h1         1 PVC       0.063700
     57 HC5         -1.4980     0.8510    -3.5190 h1         1 PVC       0.058700
     58 HC4          0.5080     1.1110    -4.8860 h1         1 PVC       0.088700
     59 H2          -1.5560     1.3160    -8.7130 ho         1 PVC       0.413000
     60 H3          -1.1550    -1.5500    -7.0730 ho         1 PVC       0.392000
     61 H4           1.8100    -0.5420    -5.2410 ho         1 PVC       0.402000
     62 H5          -2.4310    -1.0520    -3.3190 ho         1 PVC       0.391000
     63 HPE1         0.0060    -0.8790    16.2900 hc         1 PVC       0.040700
     64 HPE2         0.0030     0.8900    16.2900 hc         1 PVC       0.040700
     65 HPF1         2.2430     0.8940    17.3370 hc         1 PVC       0.039700
     66 HPF2         2.2460    -0.8750    17.3380 hc         1 PVC       0.039700
     67 HPG1         0.1860    -0.8420    18.7500 hc         1 PVC       0.031700
     68 HPG2         1.5590    -0.0580    19.5430 hc         1 PVC       0.031700
     69 HPG3         0.2840     0.9230    18.8080 hc         1 PVC       0.031700
@<TRIPOS>BOND
     1     1     2 2
     2     1     3 1
     3     1    25 1
     4     3     4 1
     5     3    31 1
     6     3    32 1
     7     4     5 1
     8     4    33 1
     9     4    34 1
    10     5     6 1
    11     5    35 1
    12     5    36 1
    13     6     7 1
    14     6    37 1
    15     6    38 1
    16     7     8 1
    17     7    39 1
    18     7    40 1
    19     8     9 1
    20     8    41 1
    21     8    42 1
    22     9    10 1
    23     9    43 1
    24     9    44 1
    25    10    11 1
    26    10    45 1
    27    10    46 1
    28    11    12 1
    29    11    47 1
    30    11    48 1
    31    12    13 1
    32    12    49 1
    33    12    50 1
    34    13    14 1
    35    13    51 1
    36    13    52 1
    37    14    28 1
    38    14    53 1
    39    14    54 1
    40    15    16 1
    41    15    25 1
    42    15    55 1
    43    15    56 1
    44    16    17 1
    45    16    24 1
    46    16    57 1
    47    17    18 1
    48    17    23 1
    49    17    58 1
    50    18    19 2
    51    18    22 1
    52    19    20 1
    53    19    21 1
    54    20    26 1
    55    20    27 1
    56    21    59 1
    57    22    60 1
    58    23    61 1
    59    24    62 1
    60    28    29 1
    61    28    63 1
    62    28    64 1
    63    29    30 1
    64    29    65 1
    65    29    66 1
    66    30    67 1
    67    30    68 1
    68    30    69 1
@<TRIPOS>SUBSTRUCTURE
     1 PVC         1 TEMP              0 ****  ****    0 ROOT
