@<TRIPOS>MOLECULE
molecule
   43    45     1     0     0
SMALL
bcc


@<TRIPOS>ATOM
      1 O23          0.0000     0.0000     0.0000 o          1 PVE      -0.844300
      2 C22          1.2530     0.0000     0.0000 c          1 PVE       0.921600
      3 O24          1.9460     0.0000     1.0570 o          1 PVE      -0.844300
      4 C21          1.9490    -0.0000    -1.3530 c3         1 PVE      -0.189400
      5 C20          1.1150    -0.7070    -2.4240 c3         1 PVE      -0.121400
      6 C18          1.1010    -2.2000    -2.1520 c          1 PVE       0.647100
      7 O19          1.0400    -2.6040    -0.9910 o          1 PVE      -0.527100
      8 N17          1.1550    -3.0280    -3.2130 ns         1 PVE      -0.519100
      9 C3           1.1400    -4.4240    -3.0220 ca         1 PVE      -0.004400
     10 C4           2.3280    -5.1680    -3.0040 ca         1 PVE      -0.011000
     11 C10          2.2870    -6.5580    -2.8010 ca         1 PVE      -0.082000
     12 C5           3.4860    -7.2940    -2.7810 ca         1 PVE      -0.125000
     13 C6           3.4820    -8.6690    -2.5870 ca         1 PVE       0.077100
     14 O25          4.5960    -9.4440    -2.5560 oh         1 PVE      -0.496100
     15 C7           2.2960    -9.3250    -2.4070 ca         1 PVE       0.116100
     16 O26          2.4480   -10.6700    -2.1990 oh         1 PVE      -0.502100
     17 C8           1.0700    -8.6050    -2.4240 ca         1 PVE      -0.151000
     18 C9           1.0470    -7.1960    -2.6200 ca         1 PVE       0.097700
     19 N1          -0.1040    -6.4320    -2.6130 na         1 PVE       0.001900
     20 C14         -1.4270    -7.0610    -2.4700 c3         1 PVE      -0.108000
     21 C15         -1.7480    -7.5840    -3.8680 c          1 PVE       0.884600
     22 O16         -1.4790    -6.8740    -4.8350 o          1 PVE      -0.797800
     23 C2          -0.0760    -5.0790    -2.8230 ca         1 PVE       0.191500
     24 N11         -1.2060    -4.2960    -2.8560 nu         1 PVE      -0.224200
     25 C12         -2.5740    -4.7340    -2.6000 c3         1 PVE       0.022300
     26 C13         -2.5020    -6.1050    -1.9320 c3         1 PVE      -0.095400
     27 OXT         -2.2720    -8.7450    -4.0290 o          1 PVE      -0.797800
     28 H211         2.9030    -0.5060    -1.2580 hc         1 PVE       0.028700
     29 H212         2.1230     1.0240    -1.6600 hc         1 PVE       0.028700
     30 H201         1.5480    -0.5210    -3.3990 hc         1 PVE       0.048200
     31 H202         0.1010    -0.3260    -2.4000 hc         1 PVE       0.048200
     32 H17          1.2280    -2.6520    -4.1380 hn         1 PVE       0.326500
     33 H4           3.2790    -4.6710    -3.1510 ha         1 PVE       0.163000
     34 H5           4.4480    -6.8290    -2.9610 ha         1 PVE       0.149000
     35 H25          5.1600    -9.1550    -1.8580 ho         1 PVE       0.422000
     36 H26          2.1020   -11.1440    -2.9380 ho         1 PVE       0.433000
     37 H8           0.3680    -9.3630    -2.0960 ha         1 PVE       0.178000
     38 H14         -1.3400    -7.9000    -1.7900 h1         1 PVE       0.086700
     39 H131        -3.4660    -6.5850    -2.0490 hc         1 PVE       0.069200
     40 H132        -2.3190    -5.9540    -0.8750 hc         1 PVE       0.069200
     41 H11         -1.1880    -3.7180    -3.6720 hn         1 PVE       0.281700
     42 H121        -3.0660    -4.0300    -1.9390 h1         1 PVE       0.074700
     43 H122        -3.1160    -4.8090    -3.5350 h1         1 PVE       0.074700
@<TRIPOS>BOND
     1     1     2 1
     2     2     3 1
     3     2     4 1
     4     4     5 1
     5     5     6 1
     6     6     7 2
     7     6     8 1
     8     8     9 1
     9     9    10 ar
    10     9    23 ar
    11    10    11 ar
    12    11    12 ar
    13    11    18 ar
    14    12    13 ar
    15    13    14 1
    16    13    15 ar
    17    15    16 1
    18    15    17 ar
    19    17    18 ar
    20    18    19 2
    21    19    20 1
    22    19    23 1
    23    20    21 1
    24    20    26 1
    25    21    22 1
    26    21    27 1
    27    23    24 1
    28    24    25 1
    29    25    26 1
    30     4    28 1
    31     4    29 1
    32     5    30 1
    33     5    31 1
    34     8    32 1
    35    10    33 1
    36    12    34 1
    37    14    35 1
    38    16    36 1
    39    17    37 1
    40    20    38 1
    41    26    39 1
    42    26    40 1
    43    24    41 1
    44    25    42 1
    45    25    43 1
@<TRIPOS>SUBSTRUCTURE
     1 PVE         1 TEMP              0 ****  ****    0 ROOT
