@<TRIPOS>MOLECULE
PVE
   43    45     1     0     0
SMALL
bcc


@<TRIPOS>ATOM
      1 O23          0.0000     0.0000     0.0000 o          1 PVE      -0.897300
      2 C22          1.2530     0.0000     0.0000 c          1 PVE       1.012600
      3 O24          1.9460     0.0000     1.0570 o          1 PVE      -0.897300
      4 C21          1.9490    -0.0000    -1.3530 c3         1 PVE      -0.135400
      5 C20          1.1150    -0.7070    -2.4240 c3         1 PVE      -0.067400
      6 C18          1.1010    -2.2000    -2.1520 c          1 PVE       0.556100
      7 O19          1.0400    -2.6040    -0.9910 o          1 PVE      -0.560100
      8 N17          1.1550    -3.0280    -3.2130 ns         1 PVE      -0.123100
      9 C3           1.1400    -4.4240    -3.0220 ca         1 PVE      -0.115400
     10 C4           2.3280    -5.1680    -3.0040 ca         1 PVE       0.015000
     11 C10          2.2870    -6.5580    -2.8010 ca         1 PVE      -0.068000
     12 C5           3.4860    -7.2940    -2.7810 ca         1 PVE      -0.103000
     13 C6           3.4820    -8.6690    -2.5870 ca         1 PVE       0.092100
     14 O25          4.5960    -9.4440    -2.5560 oh         1 PVE      -0.475100
     15 C7           2.2960    -9.3250    -2.4070 ca         1 PVE       0.116100
     16 O26          2.4480   -10.6700    -2.1990 oh         1 PVE      -0.483100
     17 C8           1.0700    -8.6050    -2.4240 ca         1 PVE      -0.116000
     18 C9           1.0470    -7.1960    -2.6200 ca         1 PVE      -0.090300
     19 N1          -0.1040    -6.4320    -2.6130 na         1 PVE       0.548900
     20 C14         -1.4270    -7.0610    -2.4700 c3         1 PVE      -0.254000
     21 C15         -1.7480    -7.5840    -3.8680 c          1 PVE       0.970600
     22 O16         -1.4790    -6.8740    -4.8350 o          1 PVE      -0.847800
     23 C2          -0.0760    -5.0790    -2.8230 ca         1 PVE      -0.128500
     24 N11         -1.2060    -4.2960    -2.8560 nu         1 PVE       0.156800
     25 C12         -2.5740    -4.7340    -2.6000 c3         1 PVE      -0.032700
     26 C13         -2.5020    -6.1050    -1.9320 c3         1 PVE      -0.023400
     27 OXT         -2.2720    -8.7450    -4.0290 o          1 PVE      -0.847800
     28 H211         2.9030    -0.5060    -1.2580 hc         1 PVE       0.002200
     29 H212         2.1230     1.0240    -1.6600 hc         1 PVE       0.002200
     30 H201         1.5480    -0.5210    -3.3990 hc         1 PVE       0.019200
     31 H202         0.1010    -0.3260    -2.4000 hc         1 PVE       0.019200
     32 H17          1.2280    -2.6520    -4.1380 hn         1 PVE       0.180500
     33 H4           3.2790    -4.6710    -3.1510 ha         1 PVE       0.123000
     34 H5           4.4480    -6.8290    -2.9610 ha         1 PVE       0.118000
     35 H25          5.1600    -9.1550    -1.8580 ho         1 PVE       0.404000
     36 H26          2.1020   -11.1440    -2.9380 ho         1 PVE       0.415000
     37 H8           0.3680    -9.3630    -2.0960 ha         1 PVE       0.150000
     38 H14         -1.3400    -7.9000    -1.7900 h1         1 PVE       0.068700
     39 H131        -3.4660    -6.5850    -2.0490 hc         1 PVE       0.035700
     40 H132        -2.3190    -5.9540    -0.8750 hc         1 PVE       0.035700
     41 H11         -1.1880    -3.7180    -3.6720 hn         1 PVE       0.133700
     42 H121        -3.0660    -4.0300    -1.9390 h1         1 PVE       0.044200
     43 H122        -3.1160    -4.8090    -3.5350 h1         1 PVE       0.044200
@<TRIPOS>BOND
     1     1     2 1   
     2     2     3 1   
     3     2     4 1   
     4     4     5 1   
     5     4    28 1   
     6     4    29 1   
     7     5     6 1   
     8     5    30 1   
     9     5    31 1   
    10     6     7 2   
    11     6     8 1   
    12     8     9 1   
    13     8    32 1   
    14     9    10 ar  
    15     9    23 ar  
    16    10    11 ar  
    17    10    33 1   
    18    11    12 ar  
    19    11    18 ar  
    20    12    13 ar  
    21    12    34 1   
    22    13    14 1   
    23    13    15 ar  
    24    14    35 1   
    25    15    16 1   
    26    15    17 ar  
    27    16    36 1   
    28    17    18 ar  
    29    17    37 1   
    30    18    19 2   
    31    19    20 1   
    32    19    23 1   
    33    20    21 1   
    34    20    26 1   
    35    20    38 1   
    36    21    22 1   
    37    21    27 1   
    38    23    24 1   
    39    24    25 1   
    40    24    41 1   
    41    25    26 1   
    42    25    42 1   
    43    25    43 1   
    44    26    39 1   
    45    26    40 1   
@<TRIPOS>SUBSTRUCTURE
     1 PVE         1 TEMP              0 ****  ****    0 ROOT
