@<TRIPOS>MOLECULE
molecule
   81    84     1     0     0
SMALL
bcc


@<TRIPOS>ATOM
      1 C32          0.0000     0.0000     0.0000 c3         1 PVG      -0.090100
      2 C31          1.5300     0.0000     0.0000 c3         1 PVG      -0.027200
      3 C3           2.0310     0.0000     1.4210 c2         1 PVG      -0.109400
      4 C2           2.3860    -1.0640     2.1350 ce         1 PVG      -0.190400
      5 C21          2.3490    -2.4890     1.6430 c3         1 PVG      -0.027900
      6 C1           2.8190    -0.6440     3.4710 c          1 PVG       0.697700
      7 O1           3.2020    -1.3950     4.3490 o          1 PVG      -0.648500
      8 N1           2.7300     0.6950     3.5850 ns         1 PVG      -0.569900
      9 C4           2.2340     1.2100     2.3020 c3         1 PVG       0.128900
     10 C5           3.2630     2.1540     1.6760 c3         1 PVG      -0.016100
     11 C6           3.3490     3.4180     2.4920 cc         1 PVG      -0.103600
     12 N2           2.5660     4.5030     2.3350 na         1 PVG      -0.123100
     13 C7           4.2250     3.6410     3.5100 cd         1 PVG      -0.189300
     14 C41          5.2680     2.6730     4.0080 c3         1 PVG      -0.015800
     15 C8           3.9910     4.9170     4.0090 cd         1 PVG      -0.026300
     16 C51          4.7250     5.5870     5.1410 c3         1 PVG      -0.015100
     17 C52          5.9250     6.3570     4.5850 c3         1 PVG      -0.177400
     18 C53          6.6600     7.0270     5.7170 c          1 PVG       0.892600
     19 O55          7.7540     7.7620     5.4640 o          1 PVG      -0.849300
     20 O54          6.2650     6.9020     6.8520 o          1 PVG      -0.849300
     21 C9           2.9410     5.4560     3.2630 cc         1 PVG      -0.167100
     22 C10          2.3740     6.7230     3.4250 ce         1 PVG       0.153800
     23 C11          1.1300     7.0150     2.8440 cd         1 PVG      -0.013400
     24 N3           0.3360     6.1430     2.2100 nd         1 PVG      -0.642300
     25 C12          0.4960     8.2820     2.8330 cd         1 PVG      -0.053200
     26 C61          1.0240     9.5580     3.4370 c3         1 PVG      -0.018200
     27 C62          0.6530     9.6120     4.9200 c3         1 PVG      -0.176400
     28 C63          1.1820    10.8870     5.5240 c          1 PVG       0.893600
     29 O65          1.7930    11.6720     4.8380 o          1 PVG      -0.852800
     30 O64          0.9740    11.1510     6.8240 o          1 PVG      -0.852800
     31 C13         -0.6820     8.1250     2.1730 cc         1 PVG      -0.291800
     32 C71         -1.7090     9.1940     1.9040 c3         1 PVG      -0.010900
     33 C14         -0.7600     6.7650     1.7880 cc         1 PVG       0.423900
     34 C15         -1.8640     6.1480     1.0550 ce         1 PVG      -0.135600
     35 C16         -2.3340     4.9120     1.4330 cd         1 PVG      -0.007400
     36 C17         -1.9550     4.1900     2.5880 cd         1 PVG       0.006800
     37 C81         -0.9630     4.6350     3.6310 c3         1 PVG      -0.052900
     38 C18         -2.6510     3.0230     2.5850 cc         1 PVG      -0.257400
     39 C91         -2.5660     1.9410     3.6290 c3         1 PVG      -0.002200
     40 C92         -3.6770     2.1390     4.6630 c3         1 PVG      -0.088100
     41 C19         -3.4680     3.0030     1.4360 c          1 PVG       0.709700
     42 O19         -4.2260     2.1020     1.1170 o          1 PVG      -0.662500
     43 N4          -3.2750     4.1450     0.7500 ns         1 PVG      -0.491100
     44 H1          -0.3610     0.9820    -0.2820 hc         1 PVG       0.041367
     45 H2          -0.3610    -0.2460     0.9910 hc         1 PVG       0.041367
     46 H3          -0.3610    -0.7350    -0.7090 hc         1 PVG       0.041367
     47 H4           1.8910    -0.8850    -0.5100 hc         1 PVG       0.049200
     48 H5           1.8910     0.8840    -0.5110 hc         1 PVG       0.049200
     49 H8           2.9320    -2.5730     0.7350 hc         1 PVG       0.044367
     50 H9           2.7630    -3.1430     2.4010 hc         1 PVG       0.044367
     51 H10          1.3230    -2.7740     1.4420 hc         1 PVG       0.044367
     52 H11          2.9650     1.2380     4.3920 hn         1 PVG       0.368500
     53 H12          1.2910     1.7230     2.4490 h1         1 PVG       0.081700
     54 H13          2.9610     2.3980     0.6640 hc         1 PVG       0.061700
     55 H14          4.2320     1.6700     1.6560 hc         1 PVG       0.061700
     56 H15          1.8370     4.6030     1.6580 hn         1 PVG       0.323700
     57 H16          6.2170     3.1870     4.1120 hc         1 PVG       0.039367
     58 H17          5.3740     1.8600     3.3000 hc         1 PVG       0.039367
     59 H18          4.9640     2.2780     4.9700 hc         1 PVG       0.039367
     60 H19          4.0590     6.2750     5.6470 hc         1 PVG       0.066200
     61 H20          5.0710     4.8370     5.8420 hc         1 PVG       0.066200
     62 H21          6.5920     5.6690     4.0790 hc         1 PVG       0.031200
     63 H22          5.5800     7.1070     3.8840 hc         1 PVG       0.031200
     64 H24          2.9380     7.5070     3.9170 ha         1 PVG       0.196000
     65 H27          2.1020     9.5870     3.3340 hc         1 PVG       0.057700
     66 H28          0.5890    10.4070     2.9250 hc         1 PVG       0.057700
     67 H29         -0.4250     9.5830     5.0240 hc         1 PVG       0.032700
     68 H30          1.0880     8.7630     5.4330 hc         1 PVG       0.032700
     69 H32         -2.4190     8.8360     1.1680 hc         1 PVG       0.030700
     70 H33         -2.2310     9.4330     2.8220 hc         1 PVG       0.030700
     71 H34         -1.2160    10.0820     1.5270 hc         1 PVG       0.030700
     72 H35         -2.2280     6.6080     0.1450 ha         1 PVG       0.131000
     73 H37         -1.0840     4.0330     4.5240 hc         1 PVG       0.068367
     74 H38          0.0430     4.5140     3.2470 hc         1 PVG       0.068367
     75 H39         -1.1350     5.6770     3.8720 hc         1 PVG       0.068367
     76 H40         -1.6020     1.9890     4.1220 hc         1 PVG       0.048200
     77 H41         -2.6810     0.9730     3.1570 hc         1 PVG       0.048200
     78 H42         -4.5870     1.6680     4.3100 hc         1 PVG       0.033700
     79 H43         -3.8520     3.1980     4.8070 hc         1 PVG       0.033700
     80 H44         -3.3800     1.6910     5.6030 hc         1 PVG       0.033700
     81 H6          -3.7260     4.3980    -0.1070 hn         1 PVG       0.331500
@<TRIPOS>BOND
     1     5     4 1
     2     7     6 2
     3     4     6 1
     4     4     3 2
     5     6     8 1
     6     1     2 1
     7     3     2 1
     8     3     9 1
     9     8     9 1
    10     9    10 1
    11    10    11 1
    12    14    13 1
    13    11    13 2
    14    11    12 1
    15    13    15 1
    16    12    21 1
    17    15    21 2
    18    15    16 1
    19    21    22 1
    20    43    35 1
    21    43    41 1
    22    34    35 2
    23    34    33 1
    24    16    17 1
    25    24    33 2
    26    24    23 1
    27    42    41 2
    28    35    36 1
    29    41    38 1
    30    33    31 1
    31    22    23 2
    32    17    18 1
    33    23    25 1
    34    20    18 1
    35    36    38 2
    36    36    37 1
    37    38    39 1
    38    18    19 1
    39    31    25 2
    40    31    32 1
    41    39    40 1
    42    25    26 1
    43    26    27 1
    44    29    28 1
    45    30    28 1
    46    28    27 1
    47     1    44 1
    48     1    45 1
    49     1    46 1
    50     2    47 1
    51     2    48 1
    52     5    49 1
    53     5    50 1
    54     5    51 1
    55     8    52 1
    56     9    53 1
    57    10    54 1
    58    10    55 1
    59    12    56 1
    60    14    57 1
    61    14    58 1
    62    14    59 1
    63    16    60 1
    64    16    61 1
    65    17    62 1
    66    17    63 1
    67    22    64 1
    68    26    65 1
    69    26    66 1
    70    27    67 1
    71    27    68 1
    72    32    69 1
    73    32    70 1
    74    32    71 1
    75    34    72 1
    76    37    73 1
    77    37    74 1
    78    37    75 1
    79    39    76 1
    80    39    77 1
    81    40    78 1
    82    40    79 1
    83    40    80 1
    84    43    81 1
@<TRIPOS>SUBSTRUCTURE
     1 PVG         1 TEMP              0 ****  ****    0 ROOT
