@<TRIPOS>MOLECULE
PVG
   81    84     1     0     0
SMALL
bcc


@<TRIPOS>ATOM
      1 C32          0.0000     0.0000     0.0000 c3         1 PVG       0.002900
      2 C31          1.5300     0.0000     0.0000 c3         1 PVG       0.044800
      3 C3           2.0310     0.0000     1.4210 c2         1 PVG      -0.126400
      4 C2           2.3860    -1.0640     2.1350 ce         1 PVG      -0.198400
      5 C21          2.3490    -2.4890     1.6430 c3         1 PVG       0.085100
      6 C1           2.8190    -0.6440     3.4710 c          1 PVG       0.622700
      7 O1           3.2020    -1.3950     4.3490 o          1 PVG      -0.691500
      8 N1           2.7300     0.6950     3.5850 ns         1 PVG      -0.180900
      9 C4           2.2340     1.2100     2.3020 c3         1 PVG       0.046900
     10 C5           3.2630     2.1540     1.6760 c3         1 PVG       0.062900
     11 C6           3.3490     3.4180     2.4920 cc         1 PVG      -0.326600
     12 N2           2.5660     4.5030     2.3350 na         1 PVG       0.451900
     13 C7           4.2250     3.6410     3.5100 cd         1 PVG      -0.193300
     14 C41          5.2680     2.6730     4.0080 c3         1 PVG       0.092200
     15 C8           3.9910     4.9170     4.0090 cd         1 PVG      -0.015300
     16 C51          4.7250     5.5870     5.1410 c3         1 PVG       0.046900
     17 C52          5.9250     6.3570     4.5850 c3         1 PVG      -0.129400
     18 C53          6.6600     7.0270     5.7170 c          1 PVG       0.981600
     19 O55          7.7540     7.7620     5.4640 o          1 PVG      -0.898800
     20 O54          6.2650     6.9020     6.8520 o          1 PVG      -0.898800
     21 C9           2.9410     5.4560     3.2630 cc         1 PVG      -0.378100
     22 C10          2.3740     6.7230     3.4250 ce         1 PVG       0.236800
     23 C11          1.1300     7.0150     2.8440 cd         1 PVG      -0.069400
     24 N3           0.3360     6.1430     2.2100 nd         1 PVG      -0.566300
     25 C12          0.4960     8.2820     2.8330 cd         1 PVG      -0.042200
     26 C61          1.0240     9.5580     3.4370 c3         1 PVG       0.043800
     27 C62          0.6530     9.6120     4.9200 c3         1 PVG      -0.130400
     28 C63          1.1820    10.8870     5.5240 c          1 PVG       0.982600
     29 O65          1.7930    11.6720     4.8380 o          1 PVG      -0.901800
     30 O64          0.9740    11.1510     6.8240 o          1 PVG      -0.901800
     31 C13         -0.6820     8.1250     2.1730 cc         1 PVG      -0.303800
     32 C71         -1.7090     9.1940     1.9040 c3         1 PVG       0.102100
     33 C14         -0.7600     6.7650     1.7880 cc         1 PVG       0.394900
     34 C15         -1.8640     6.1480     1.0550 ce         1 PVG      -0.079600
     35 C16         -2.3340     4.9120     1.4330 cd         1 PVG      -0.165400
     36 C17         -1.9550     4.1900     2.5880 cd         1 PVG       0.017800
     37 C81         -0.9630     4.6350     3.6310 c3         1 PVG      -0.005900
     38 C18         -2.6510     3.0230     2.5850 cc         1 PVG      -0.281400
     39 C91         -2.5660     1.9410     3.6290 c3         1 PVG       0.071800
     40 C92         -3.6770     2.1390     4.6630 c3         1 PVG       0.003900
     41 C19         -3.4680     3.0030     1.4360 c          1 PVG       0.624700
     42 O19         -4.2260     2.1020     1.1170 o          1 PVG      -0.704500
     43 N4          -3.2750     4.1450     0.7500 ns         1 PVG      -0.050100
     44 H1          -0.3610    -0.6920    -0.7510 hc         1 PVG       0.007367
     45 H2          -0.3610     0.9970    -0.2230 hc         1 PVG       0.007367
     46 H3          -0.3610    -0.3050     0.9750 hc         1 PVG       0.007367
     47 H4           1.8910    -0.8850    -0.5110 hc         1 PVG       0.017700
     48 H5           1.8910     0.8850    -0.5110 hc         1 PVG       0.017700
     49 H8           2.9330    -2.5730     0.7350 hc         1 PVG       0.008033
     50 H9           1.3230    -2.7740     1.4410 hc         1 PVG       0.008033
     51 H10          2.7630    -3.1430     2.4010 hc         1 PVG       0.008033
     52 H11          2.9650     1.2380     4.3920 hn         1 PVG       0.226500
     53 H12          1.2910     1.7230     2.4490 h1         1 PVG       0.049700
     54 H13          4.2320     1.6700     1.6560 hc         1 PVG       0.029200
     55 H14          2.9610     2.3980     0.6640 hc         1 PVG       0.029200
     56 H15          1.8370     4.6030     1.6580 hn         1 PVG       0.142700
     57 H16          5.3500     1.8430     3.3170 hc         1 PVG       0.006367
     58 H17          4.9810     2.3040     4.9850 hc         1 PVG       0.006367
     59 H18          6.2240     3.1780     4.0800 hc         1 PVG       0.006367
     60 H19          5.0710     4.8370     5.8420 hc         1 PVG       0.036200
     61 H20          4.0590     6.2750     5.6470 hc         1 PVG       0.036200
     62 H21          6.5920     5.6690     4.0790 hc         1 PVG       0.006700
     63 H22          5.5800     7.1070     3.8840 hc         1 PVG       0.006700
     64 H24          2.9380     7.5070     3.9170 ha         1 PVG       0.152000
     65 H27          2.1020     9.5870     3.3340 hc         1 PVG       0.030200
     66 H28          0.5900    10.4070     2.9250 hc         1 PVG       0.030200
     67 H29         -0.4250     9.5830     5.0240 hc         1 PVG       0.008700
     68 H30          1.0880     8.7630     5.4330 hc         1 PVG       0.008700
     69 H32         -2.4410     8.8220     1.1970 hc         1 PVG      -0.002300
     70 H33         -1.2210    10.0680     1.4900 hc         1 PVG      -0.002300
     71 H34         -2.2040     9.4610     2.8300 hc         1 PVG      -0.002300
     72 H35         -2.2280     6.6080     0.1450 ha         1 PVG       0.100000
     73 H37         -1.2170     5.6320     3.9690 hc         1 PVG       0.043367
     74 H38          0.0320     4.6410     3.2030 hc         1 PVG       0.043367
     75 H39         -0.9910     3.9510     4.4710 hc         1 PVG       0.043367
     76 H40         -2.6810     0.9730     3.1570 hc         1 PVG       0.015700
     77 H41         -1.6020     1.9890     4.1220 hc         1 PVG       0.015700
     78 H42         -4.5670     1.6110     4.3420 hc         1 PVG       0.001367
     79 H43         -3.3530     1.7510     5.6210 hc         1 PVG       0.001367
     80 H44         -3.8980     3.1950     4.7570 hc         1 PVG       0.001367
     81 H6          -3.7260     4.3980    -0.1070 hn         1 PVG       0.173500
@<TRIPOS>BOND
     1     1     2 1   
     2     1    44 1   
     3     1    45 1   
     4     1    46 1   
     5     2     3 1   
     6     2    47 1   
     7     2    48 1   
     8     3     4 2   
     9     3     9 1   
    10     4     5 1   
    11     4     6 1   
    12     5    49 1   
    13     5    50 1   
    14     5    51 1   
    15     6     7 2   
    16     6     8 1   
    17     8     9 1   
    18     8    52 1   
    19     9    10 1   
    20     9    53 1   
    21    10    11 1   
    22    10    54 1   
    23    10    55 1   
    24    11    12 1   
    25    11    13 2   
    26    12    21 1   
    27    12    56 1   
    28    13    14 1   
    29    13    15 1   
    30    14    57 1   
    31    14    58 1   
    32    14    59 1   
    33    15    16 1   
    34    15    21 2   
    35    16    17 1   
    36    16    60 1   
    37    16    61 1   
    38    17    18 1   
    39    17    62 1   
    40    17    63 1   
    41    18    19 1   
    42    18    20 1   
    43    21    22 1   
    44    22    23 2   
    45    22    64 1   
    46    23    24 1   
    47    23    25 1   
    48    24    33 2   
    49    25    26 1   
    50    25    31 2   
    51    26    27 1   
    52    26    65 1   
    53    26    66 1   
    54    27    28 1   
    55    27    67 1   
    56    27    68 1   
    57    28    29 1   
    58    28    30 1   
    59    31    32 1   
    60    31    33 1   
    61    32    69 1   
    62    32    70 1   
    63    32    71 1   
    64    33    34 1   
    65    34    35 2   
    66    34    72 1   
    67    35    36 1   
    68    35    43 1   
    69    36    37 1   
    70    36    38 2   
    71    37    73 1   
    72    37    74 1   
    73    37    75 1   
    74    38    39 1   
    75    38    41 1   
    76    39    40 1   
    77    39    76 1   
    78    39    77 1   
    79    40    78 1   
    80    40    79 1   
    81    40    80 1   
    82    41    42 2   
    83    41    43 1   
    84    43    81 1   
@<TRIPOS>SUBSTRUCTURE
     1 PVG         1 TEMP              0 ****  ****    0 ROOT
