@<TRIPOS>MOLECULE
molecule
   81    84     1     0     0
SMALL
bcc


@<TRIPOS>ATOM
      1 C31          0.0000     0.0000     0.0000 c3         1 PVN      -0.026200
      2 C32          1.5300     0.0000     0.0000 c3         1 PVN      -0.091100
      3 C3          -0.5020     0.0000     1.4210 c2         1 PVN      -0.112400
      4 C2          -0.8590     1.0640     2.1330 ce         1 PVN      -0.190400
      5 C21         -0.8250     2.4880     1.6400 c3         1 PVN      -0.027900
      6 C1          -1.2910     0.6450     3.4710 c          1 PVN       0.697700
      7 O1          -1.6750     1.3960     4.3470 o          1 PVN      -0.641500
      8 N1          -1.2000    -0.6940     3.5850 ns         1 PVN      -0.575900
      9 C4          -0.7020    -1.2100     2.3030 c3         1 PVN       0.130900
     10 C5           0.6280    -1.9370     2.5120 c3         1 PVN      -0.014100
     11 C6           0.3900    -3.2110     3.2790 cc         1 PVN      -0.112600
     12 C7          -0.0680    -4.3780     2.7470 cd         1 PVN      -0.182300
     13 C41         -0.4190    -4.6150     1.3010 c3         1 PVN      -0.013800
     14 N2           0.6010    -3.3780     4.6000 na         1 PVN      -0.127100
     15 C9           0.2700    -4.6760     4.9400 cc         1 PVN      -0.155100
     16 C8          -0.1540    -5.3140     3.7720 cd         1 PVN      -0.035300
     17 C51         -0.6130    -6.7440     3.6450 c3         1 PVN      -0.011100
     18 C52          0.5880    -7.6410     3.3400 c3         1 PVN      -0.178400
     19 C53          0.1300    -9.0710     3.2140 c          1 PVN       0.891600
     20 O54          1.0190   -10.0400     2.9450 o          1 PVN      -0.852800
     21 O55         -1.0390    -9.3440     3.3540 o          1 PVN      -0.852800
     22 C10          0.3480    -5.2460     6.2130 ce         1 PVN       0.144800
     23 C11          1.1070    -4.6210     7.2160 cd         1 PVN       0.003600
     24 C12          1.0570    -4.9170     8.6000 cd         1 PVN      -0.050200
     25 C61          0.1870    -5.9490     9.2680 c3         1 PVN      -0.020200
     26 C62         -1.1910    -5.3480     9.5550 c3         1 PVN      -0.176400
     27 C63         -2.0610    -6.3810    10.2230 c          1 PVN       0.890600
     28 O64         -1.6250    -7.4860    10.4460 o          1 PVN      -0.854300
     29 O65         -3.3210    -6.0740    10.5690 o          1 PVN      -0.854300
     30 N3           2.0080    -3.6480     7.0260 nd         1 PVN      -0.647300
     31 C14          2.5350    -3.2970     8.1960 cc         1 PVN       0.450900
     32 C13          1.9450    -4.0890     9.2100 cc         1 PVN      -0.289800
     33 C71          2.2480    -4.0270    10.6850 c3         1 PVN      -0.016900
     34 C15          3.5530    -2.2690     8.3990 ce         1 PVN      -0.160600
     35 C16          4.6110    -2.1670     7.5250 cd         1 PVN       0.025600
     36 C17          4.5300    -2.1520     6.1140 cd         1 PVN       0.000800
     37 C81          3.2710    -2.2470     5.2910 c3         1 PVN      -0.037900
     38 N4           5.9540    -2.0500     7.8690 ns         1 PVN      -0.485100
     39 C19          6.6770    -1.9750     6.7340 c          1 PVN       0.709700
     40 O19          7.8890    -1.8670     6.6700 o          1 PVN      -0.653500
     41 C18          5.7960    -2.0370     5.6350 cc         1 PVN      -0.249400
     42 C91          6.1920    -1.9830     4.1810 c3         1 PVN      -0.003200
     43 C92          6.2970    -0.5230     3.7370 c3         1 PVN      -0.089100
     44 H321         1.8910     0.7250    -0.7190 hc         1 PVN       0.039367
     45 H322         1.8910    -0.9860    -0.2680 hc         1 PVN       0.039367
     46 HC4         -1.4330    -1.8760     1.8620 h1         1 PVN       0.085700
     47 H211        -1.2460     3.1420     2.3940 hc         1 PVN       0.044367
     48 H212         0.2000     2.7770     1.4430 hc         1 PVN       0.044367
     49 H213        -1.4040     2.5680     0.7280 hc         1 PVN       0.044367
     50 HN1         -1.4330    -1.2370     4.3930 hn         1 PVN       0.365500
     51 H5C1         1.3040    -1.3000     3.0710 hc         1 PVN       0.061700
     52 H5C2         1.0660    -2.1710     1.5490 hc         1 PVN       0.061700
     53 HN2          0.9380    -2.6780     5.2300 hn         1 PVN       0.323700
     54 H411        -0.3690    -5.6750     1.0860 hc         1 PVN       0.035367
     55 H412         0.2820    -4.0840     0.6680 hc         1 PVN       0.035367
     56 H413        -1.4230    -4.2550     1.1090 hc         1 PVN       0.035367
     57 H101        -0.3480    -6.0310     6.4830 ha         1 PVN       0.187000
     58 H511        -1.0710    -7.0590     4.5750 hc         1 PVN       0.063700
     59 H512        -1.3350    -6.8220     2.8420 hc         1 PVN       0.063700
     60 H521         1.3110    -7.5630     4.1430 hc         1 PVN       0.033200
     61 H522         1.0470    -7.3250     2.4100 hc         1 PVN       0.033200
     62 H611         0.0780    -6.8070     8.6150 hc         1 PVN       0.061200
     63 H612         0.6460    -6.2610    10.1990 hc         1 PVN       0.061200
     64 H621        -1.0820    -4.4910    10.2080 hc         1 PVN       0.030700
     65 H622        -1.6500    -5.0370     8.6240 hc         1 PVN       0.030700
     66 H151         3.8130    -2.1970     9.4470 ha         1 PVN       0.114000
     67 H711         1.7840    -3.1470    11.1130 hc         1 PVN       0.032033
     68 H712         1.8580    -4.9130    11.1710 hc         1 PVN       0.032033
     69 H713         3.3200    -3.9780    10.8320 hc         1 PVN       0.032033
     70 HN4          6.3210    -2.0270     8.8000 hn         1 PVN       0.336500
     71 H811         2.4330    -1.8750     5.8680 hc         1 PVN       0.060033
     72 H812         3.0920    -3.2820     5.0220 hc         1 PVN       0.060033
     73 H813         3.3810    -1.6540     4.3910 hc         1 PVN       0.060033
     74 H911         5.4430    -2.4890     3.5840 hc         1 PVN       0.052200
     75 H912         7.1500    -2.4700     4.0490 hc         1 PVN       0.052200
     76 H921         7.2580    -0.1230     4.0350 hc         1 PVN       0.030367
     77 H922         5.5060     0.0540     4.2010 hc         1 PVN       0.030367
     78 H923         6.2000    -0.4660     2.6590 hc         1 PVN       0.030367
     79 H31         -0.3610    -0.8840    -0.5110 hc         1 PVN       0.050700
     80 H323         1.8910     0.2610     0.9880 hc         1 PVN       0.039367
     81 HXT         -0.3610     0.8840    -0.5110 hc         1 PVN       0.050700
@<TRIPOS>BOND
     1     1     2 1
     2     1     3 1
     3     1    79 1
     4     1    81 1
     5     2    80 1
     6     2    44 1
     7     2    45 1
     8     3     9 1
     9     3     4 2
    10     4     5 1
    11     4     6 1
    12     5    48 1
    13     5    49 1
    14     5    47 1
    15     6     7 2
    16     6     8 1
    17     8     9 1
    18     8    50 1
    19     9    10 1
    20     9    46 1
    21    10    11 1
    22    10    52 1
    23    10    51 1
    24    11    12 2
    25    11    14 1
    26    12    13 1
    27    12    16 1
    28    13    54 1
    29    13    55 1
    30    13    56 1
    31    14    15 1
    32    14    53 1
    33    15    16 2
    34    15    22 1
    35    16    17 1
    36    17    18 1
    37    17    58 1
    38    17    59 1
    39    18    19 1
    40    18    61 1
    41    18    60 1
    42    19    20 1
    43    19    21 1
    44    22    23 2
    45    22    57 1
    46    23    24 1
    47    23    30 1
    48    24    25 1
    49    24    32 2
    50    25    62 1
    51    25    63 1
    52    25    26 1
    53    26    64 1
    54    26    65 1
    55    26    27 1
    56    27    29 1
    57    27    28 1
    58    30    31 2
    59    31    32 1
    60    31    34 1
    61    32    33 1
    62    33    69 1
    63    33    67 1
    64    33    68 1
    65    34    66 1
    66    34    35 2
    67    35    36 1
    68    35    38 1
    69    36    37 1
    70    36    41 2
    71    37    71 1
    72    37    72 1
    73    37    73 1
    74    38    70 1
    75    38    39 1
    76    39    40 2
    77    39    41 1
    78    41    42 1
    79    42    74 1
    80    42    75 1
    81    42    43 1
    82    43    76 1
    83    43    77 1
    84    43    78 1
@<TRIPOS>SUBSTRUCTURE
     1 PVN         1 TEMP              0 ****  ****    0 ROOT
