@<TRIPOS>MOLECULE
molecule
   43    45     1     0     0
SMALL
bcc


@<TRIPOS>ATOM
      1 Cl           0.0000     0.0000     0.0000 cl         1 PVP      -0.072400
      2 C8           1.7360     0.0000     0.0000 ca         1 PVP      -0.203200
      3 C9           2.4440     0.0000     1.1880 ca         1 PVP       0.472600
      4 C16          1.7160     0.0060     2.5080 c3         1 PVP      -0.144400
      5 N3           3.7670    -0.0060     1.1530 nb         1 PVP      -0.735000
      6 C6           4.4190    -0.0120    -0.0000 cp         1 PVP       0.651000
      7 C5           5.9030    -0.0180     0.0070 cp         1 PVP       0.373300
      8 N23          6.5660    -0.0190    -1.1410 nb         1 PVP      -0.648000
      9 C1           7.8830    -0.0200    -1.1790 ca         1 PVP       0.413200
     10 C2           8.6260    -0.0200    -0.0120 ca         1 PVP      -0.241300
     11 C3           7.9720    -0.0200     1.2110 ca         1 PVP      -0.106000
     12 C4           6.5880    -0.0190     1.2190 ca         1 PVP      -0.206300
     13 N2           3.7790    -0.0120    -1.1610 nb         1 PVP      -0.723000
     14 C7           2.4520    -0.0070    -1.2030 ca         1 PVP       0.647200
     15 N4           1.7850    -0.0130    -2.4170 nh         1 PVP      -0.718300
     16 C13          1.9730     1.2600    -3.1270 c3         1 PVP       0.169300
     17 C12          1.1590     1.2430    -4.4230 c3         1 PVP       0.162800
     18 N5           1.5910     0.1110    -5.2550 n3         1 PVP      -0.715600
     19 C11          1.4030    -1.1620    -4.5450 c3         1 PVP       0.162800
     20 C10          2.2170    -1.1450    -3.2490 c3         1 PVP       0.169300
     21 C14          0.8840     0.1050    -6.5430 c3         1 PVP       0.162800
     22 C15          1.4700     1.1870    -7.4510 c3         1 PVP       0.144400
     23 O1           2.8310     0.8700    -7.7530 oh         1 PVP      -0.590800
     24 H1           2.4360     0.0140     3.3170 hc         1 PVP       0.061700
     25 H2           1.0920     0.8890     2.5720 hc         1 PVP       0.061700
     26 H3           1.0980    -0.8800     2.5830 hc         1 PVP       0.061700
     27 H4           8.3900    -0.0210    -2.1360 h4         1 PVP       0.028100
     28 H5           9.7080    -0.0210    -0.0540 ha         1 PVP       0.138000
     29 H6           8.5310    -0.0200     2.1390 ha         1 PVP       0.141000
     30 H7           6.0440    -0.0190     2.1560 ha         1 PVP       0.161000
     31 H8           3.0220     1.3900    -3.3630 h1         1 PVP       0.058950
     32 H9           1.6340     2.0760    -2.5000 h1         1 PVP       0.058950
     33 H10          0.1070     1.1350    -4.1870 h1         1 PVP       0.041450
     34 H11          1.3200     2.1680    -4.9630 h1         1 PVP       0.041450
     35 H13          0.3530    -1.2920    -4.3100 h1         1 PVP       0.041450
     36 H14          1.7420    -1.9780    -5.1720 h1         1 PVP       0.041450
     37 H15          2.0550    -2.0700    -2.7100 h1         1 PVP       0.058950
     38 H16          3.2690    -1.0370    -3.4850 h1         1 PVP       0.058950
     39 H17         -0.1680     0.3020    -6.3790 h1         1 PVP       0.042200
     40 H18          1.0010    -0.8640    -7.0140 h1         1 PVP       0.042200
     41 H19          0.8980     1.2370    -8.3700 h1         1 PVP       0.019700
     42 H20          1.4260     2.1450    -6.9460 h1         1 PVP       0.019700
     43 H21          3.1110     1.3670    -8.5040 ho         1 PVP       0.394000
@<TRIPOS>BOND
     1     9    10 ar
     2     9     8 ar
     3    10    11 ar
     4     8     7 ar
     5    11    12 ar
     6     7    12 ar
     7     7     6 1
     8     5     6 ar
     9     5     3 ar
    10     6    13 ar
    11     4     3 1
    12     3     2 ar
    13    13    14 ar
    14     2    14 ar
    15     2     1 1
    16    14    15 1
    17    16    15 1
    18    16    17 1
    19    15    20 1
    20    20    19 1
    21    17    18 1
    22    19    18 1
    23    18    21 1
    24    23    22 1
    25    21    22 1
    26     4    24 1
    27     4    25 1
    28     4    26 1
    29     9    27 1
    30    10    28 1
    31    11    29 1
    32    12    30 1
    33    16    31 1
    34    16    32 1
    35    17    33 1
    36    17    34 1
    37    19    35 1
    38    19    36 1
    39    20    37 1
    40    20    38 1
    41    21    39 1
    42    21    40 1
    43    22    41 1
    44    22    42 1
    45    23    43 1
@<TRIPOS>SUBSTRUCTURE
     1 PVP         1 TEMP              0 ****  ****    0 ROOT
