@<TRIPOS>MOLECULE
PVP
   43    45     1     0     0
SMALL
bcc


@<TRIPOS>ATOM
      1 Cl           0.0000     0.0000     0.0000 cl         1 PVP       0.031600
      2 C8           1.7360     0.0000     0.0000 ca         1 PVP      -0.269200
      3 C9           2.4440     0.0000     1.1880 ca         1 PVP       0.411600
      4 C16          1.7160     0.0060     2.5080 c3         1 PVP      -0.046400
      5 N3           3.7670    -0.0060     1.1530 nb         1 PVP      -0.609000
      6 C6           4.4190    -0.0120    -0.0000 cp         1 PVP       0.555000
      7 C5           5.9030    -0.0180     0.0070 cp         1 PVP       0.304300
      8 N23          6.5660    -0.0190    -1.1410 nb         1 PVP      -0.529000
      9 C1           7.8830    -0.0200    -1.1790 ca         1 PVP       0.389200
     10 C2           8.6260    -0.0200    -0.0120 ca         1 PVP      -0.207300
     11 C3           7.9720    -0.0200     1.2110 ca         1 PVP      -0.083000
     12 C4           6.5880    -0.0190     1.2190 ca         1 PVP      -0.177300
     13 N2           3.7790    -0.0120    -1.1610 nb         1 PVP      -0.597000
     14 C7           2.4520    -0.0070    -1.2030 ca         1 PVP       0.522200
     15 N4           1.7850    -0.0130    -2.4170 nh         1 PVP      -0.518300
     16 C13          1.9730     1.2600    -3.1270 c3         1 PVP       0.150800
     17 C12          1.1590     1.2430    -4.4230 c3         1 PVP       0.150300
     18 N5           1.5910     0.1110    -5.2550 n3         1 PVP      -0.524600
     19 C11          1.4030    -1.1620    -4.5450 c3         1 PVP       0.150300
     20 C10          2.2170    -1.1450    -3.2490 c3         1 PVP       0.150800
     21 C14          0.8840     0.1050    -6.5430 c3         1 PVP       0.143800
     22 C15          1.4700     1.1870    -7.4510 c3         1 PVP       0.222400
     23 O1           2.8310     0.8700    -7.7530 oh         1 PVP      -0.574800
     24 H1           2.4360     0.0140     3.3170 hc         1 PVP       0.022033
     25 H2           1.0920     0.8890     2.5720 hc         1 PVP       0.022033
     26 H3           1.0980    -0.8800     2.5830 hc         1 PVP       0.022033
     27 H4           8.3900    -0.0210    -2.1360 h4         1 PVP      -0.017900
     28 H5           9.7080    -0.0210    -0.0540 ha         1 PVP       0.111000
     29 H6           8.5310    -0.0200     2.1390 ha         1 PVP       0.110000
     30 H7           6.0440    -0.0190     2.1560 ha         1 PVP       0.132000
     31 H8           3.0220     1.3900    -3.3630 h1         1 PVP       0.028200
     32 H9           1.6340     2.0760    -2.5000 h1         1 PVP       0.028200
     33 H10          0.1070     1.1350    -4.1870 h1         1 PVP       0.014450
     34 H11          1.3200     2.1680    -4.9630 h1         1 PVP       0.014450
     35 H13          0.3530    -1.2920    -4.3100 h1         1 PVP       0.014450
     36 H14          1.7420    -1.9780    -5.1720 h1         1 PVP       0.014450
     37 H15          2.0550    -2.0700    -2.7100 h1         1 PVP       0.028200
     38 H16          3.2690    -1.0370    -3.4850 h1         1 PVP       0.028200
     39 H17         -0.1680     0.3020    -6.3790 h1         1 PVP       0.014200
     40 H18          1.0010    -0.8640    -7.0140 h1         1 PVP       0.014200
     41 H19          0.8980     1.2370    -8.3700 h1         1 PVP      -0.014300
     42 H20          1.4260     2.1450    -6.9460 h1         1 PVP      -0.014300
     43 H21          3.1110     1.3670    -8.5040 ho         1 PVP       0.381000
@<TRIPOS>BOND
     1     1     2 1   
     2     2     3 ar  
     3     2    14 ar  
     4     3     4 1   
     5     3     5 ar  
     6     4    24 1   
     7     4    25 1   
     8     4    26 1   
     9     5     6 ar  
    10     6     7 1   
    11     6    13 ar  
    12     7     8 ar  
    13     7    12 ar  
    14     8     9 ar  
    15     9    10 ar  
    16     9    27 1   
    17    10    11 ar  
    18    10    28 1   
    19    11    12 ar  
    20    11    29 1   
    21    12    30 1   
    22    13    14 ar  
    23    14    15 1   
    24    15    16 1   
    25    15    20 1   
    26    16    17 1   
    27    16    31 1   
    28    16    32 1   
    29    17    18 1   
    30    17    33 1   
    31    17    34 1   
    32    18    19 1   
    33    18    21 1   
    34    19    20 1   
    35    19    35 1   
    36    19    36 1   
    37    20    37 1   
    38    20    38 1   
    39    21    22 1   
    40    21    39 1   
    41    21    40 1   
    42    22    23 1   
    43    22    41 1   
    44    22    42 1   
    45    23    43 1   
@<TRIPOS>SUBSTRUCTURE
     1 PVP         1 TEMP              0 ****  ****    0 ROOT
