@<TRIPOS>MOLECULE
molecule
   19    19     1     0     0
SMALL
bcc


@<TRIPOS>ATOM
      1 S            0.0000     0.0000     0.0000 sy         1 PVS       1.270200
      2 O1           1.4210     0.0000     0.0000 o          1 PVS      -0.627300
      3 O2          -0.7770     0.0000     1.1910 o          1 PVS      -0.627300
      4 C7          -0.4970     1.4190    -0.9190 ce         1 PVS      -0.375100
      5 C1          -0.4990    -1.4170    -0.9200 ca         1 PVS      -0.296500
      6 C2          -1.7490    -1.9710    -0.7150 ca         1 PVS      -0.029000
      7 C3          -2.1400    -3.0830    -1.4360 ca         1 PVS      -0.150000
      8 C4          -1.2810    -3.6420    -2.3640 ca         1 PVS      -0.074000
      9 C5          -0.0300    -3.0890    -2.5690 ca         1 PVS      -0.150000
     10 C6           0.3590    -1.9740    -1.8500 ca         1 PVS      -0.029000
     11 H2          -2.4220    -1.5330     0.0120 ha         1 PVS       0.151000
     12 H3          -3.1190    -3.5160    -1.2750 ha         1 PVS       0.137500
     13 H4          -1.5870    -4.5140    -2.9280 ha         1 PVS       0.134000
     14 H5           0.6430    -3.5260    -3.2970 ha         1 PVS       0.137500
     15 H6           1.3380    -1.5410    -2.0110 ha         1 PVS       0.151000
     16 H7          -0.0540     1.6210    -1.8860 h4         1 PVS       0.170000
     17 C8          -1.4030     2.2310    -0.4300 c2         1 PVS      -0.055000
     18 H8          -1.7090     3.1030    -0.9950 ha         1 PVS       0.131000
     19 H8A         -1.8460     2.0290     0.5370 ha         1 PVS       0.131000
@<TRIPOS>BOND
     1     1     5 1
     2     1     4 1
     3     2     1 2
     4     3     1 2
     5     5    10 ar
     6     6     5 ar
     7     6     7 ar
     8     6    11 1
     9     7     8 ar
    10     7    12 1
    11     8     9 ar
    12     8    13 1
    13     9    14 1
    14    10     9 ar
    15    10    15 1
    16     4    16 1
    17     4    17 2
    18    17    18 1
    19    17    19 1
@<TRIPOS>SUBSTRUCTURE
     1 PVS         1 TEMP              0 ****  ****    0 ROOT
