@<TRIPOS>MOLECULE
PVS
   19    19     1     0     0
SMALL
bcc


@<TRIPOS>ATOM
      1 S           0.1660    0.0410    0.1420 s6        1 PVS      2.883000
      2 O1          1.5510    0.2080    0.2690 o         1 PVS     -0.930500
      3 O2         -0.5930    0.2290    1.3020 o         1 PVS     -0.930500
      4 C7         -0.3600    1.1960   -1.0470 c3        1 PVS     -0.907000
      5 C1         -0.1950   -1.3890   -0.5890 c2        1 PVS     -0.856000
      6 C2         -1.6120   -1.9360   -0.5760 c3        1 PVS     -0.075000
      7 C3         -1.9330   -2.6350   -1.8660 c2        1 PVS     -0.109000
      8 C4         -1.0010   -3.1270   -2.7160 c2        1 PVS     -0.165000
      9 C5          0.3830   -3.1640   -2.2150 c2        1 PVS     -0.095000
     10 C6          0.5610   -2.1720   -1.3510 c1        1 PVS      0.039000
     11 H2         -2.2890   -1.0340   -0.4690 hc        1 PVS      0.144500
     12 H3         -1.8100   -2.6300    0.2830 hc        1 PVS      0.144500
     13 H4         -3.0090   -2.7400   -2.0790 ha        1 PVS      0.146000
     14 H5         -1.2310   -3.5860   -3.6840 ha        1 PVS      0.150000
     15 H6          1.0640   -3.9790   -2.4700 ha        1 PVS      0.178000
     16 H7          0.0550    0.9240   -2.0660 h1        1 PVS      0.178500
     17 C8         -1.7890    1.1750   -1.2250 c1        1 PVS     -0.032000
     18 H8          0.0810    2.2040   -0.8110 h1        1 PVS      0.178500
     19 H8A        -2.2800    2.1160   -1.5100 ha        1 PVS      0.058000
@<TRIPOS>BOND
     1    1    2 1   
     2    1    3 1   
     3    1    4 1   
     4    1    5 1   
     5    4   16 1   
     6    4   17 1   
     7    4   18 1   
     8    5    6 1   
     9    5   10 1   
    10    6    7 1   
    11    6   11 1   
    12    6   12 1   
    13    7    8 1   
    14    7   13 1   
    15    8    9 1   
    16    8   14 1   
    17    9   10 1   
    18    9   15 1   
    19   17   19 1   
@<TRIPOS>SUBSTRUCTURE
     1 PVS         1 TEMP              0 ****  ****    0 ROOT
