@<TRIPOS>MOLECULE
PVW
   25    26     1     0     0
SMALL
bcc


@<TRIPOS>ATOM
      1 C1           0.0000     0.0000     0.0000 c3         1 PVW       0.241700
      2 O2           1.4290     0.0000     0.0000 os         1 PVW      -0.383600
      3 C3           2.0100     0.0000     1.3060 c3         1 PVW       0.193400
      4 C4           3.5350     0.0000     1.1850 c3         1 PVW      -0.030000
      5 N5           3.9770     1.2500     0.5630 n          1 PVW       0.167700
      6 C6           4.2700     2.3490     1.3530 cc         1 PVW       0.280200
      7 C7           4.6880     3.5240     0.7400 cd         1 PVW      -0.538200
      8 C8           4.7990     3.5630    -0.6670 c          1 PVW       0.642100
      9 O9           5.1630     4.5820    -1.2280 o          1 PVW      -0.668500
     10 N10          4.4970     2.4600    -1.3830 ns         1 PVW      -0.004500
     11 C11          4.1000     1.3280    -0.7750 cs         1 PVW       0.236400
     12 S12          3.7360    -0.0470    -1.7280 s          1 PVW      -0.634400
     13 N13          4.9060     4.4340     1.7550 na         1 PVW       0.350100
     14 C14          4.6250     3.8060     2.9130 cd         1 PVW       0.253400
     15 N15          4.2510     2.5760     2.6690 nc         1 PVW      -0.611000
     16 H11C        -0.3610     0.8850     0.5110 h1         1 PVW      -0.011967
     17 H12C        -0.3610    -0.8850     0.5110 h1         1 PVW      -0.011967
     18 H13C        -0.3610    -0.0000    -1.0210 h1         1 PVW      -0.011967
     19 H31C         1.6900    -0.8850     1.8430 h1         1 PVW       0.000700
     20 H32C         1.6900     0.8840     1.8430 h1         1 PVW       0.000700
     21 HA1          3.8490    -0.8370     0.5740 h1         1 PVW       0.075200
     22 HB2          3.9750    -0.0880     2.1710 h1         1 PVW       0.075200
     23 H13          5.2140     5.3800     1.6500 hn         1 PVW       0.136700
     24 H10          4.5770     2.4820    -2.3810 hn         1 PVW       0.220500
     25 H14          4.6980     4.2520     3.8980 h5         1 PVW       0.032100
@<TRIPOS>BOND
     1     1     2 1   
     2     1    16 1   
     3     1    17 1   
     4     1    18 1   
     5     2     3 1   
     6     3     4 1   
     7     3    19 1   
     8     3    20 1   
     9     4     5 1   
    10     4    21 1   
    11     4    22 1   
    12     5     6 1   
    13     5    11 1   
    14     6     7 2   
    15     6    15 1   
    16     7     8 1   
    17     7    13 1   
    18     8     9 2   
    19     8    10 1   
    20    10    11 1   
    21    10    24 1   
    22    11    12 2   
    23    13    14 1   
    24    13    23 1   
    25    14    15 2   
    26    14    25 1   
@<TRIPOS>SUBSTRUCTURE
     1 PVW         1 TEMP              0 ****  ****    0 ROOT
