@<TRIPOS>MOLECULE
molecule
   50    50     1     0     0
SMALL
bcc


@<TRIPOS>ATOM
      1 C01          0.0000     0.0000     0.0000 c3         1 PVZ      -0.092100
      2 C02          1.5300     0.0000     0.0000 c3         1 PVZ      -0.084400
      3 C03          2.0390     0.0000     1.4430 c3         1 PVZ      -0.082400
      4 C04          3.5690    -0.0000     1.4440 c3         1 PVZ      -0.082400
      5 C05          4.0780    -0.0010     2.8870 c3         1 PVZ      -0.083400
      6 C06          5.6080    -0.0010     2.8870 c3         1 PVZ      -0.080400
      7 C07          6.1170    -0.0020     4.3300 c3         1 PVZ      -0.083400
      8 C08          7.6480    -0.0020     4.3300 c3         1 PVZ      -0.106400
      9 C09          8.1570    -0.0020     5.7740 c3         1 PVZ       0.064300
     10 N10          9.6220    -0.0030     5.7740 na         1 PVZ      -0.078100
     11 C11         10.4340    -1.1040     5.7690 cc         1 PVZ      -0.279300
     12 C12         11.7030    -0.6530     5.7710 cd         1 PVZ      -0.019300
     13 N13         11.6660     0.6880     5.7780 na         1 PVZ       0.106900
     14 C14         10.4230     1.0850     5.7760 cc         1 PVZ      -0.073600
     15 C15         12.8370     1.5680     5.7830 c3         1 PVZ       0.045300
     16 C16         13.1370     2.0250     4.3540 c3         1 PVZ      -0.113600
     17 O17         11.9670     2.6190     3.7880 oh         1 PVZ      -0.660800
     18 P18         14.4880     3.2490     4.3780 p5         1 PVZ       1.045200
     19 O19         14.7460     3.7270     3.0030 o          1 PVZ      -0.890500
     20 O20         14.0670     4.4940     5.3100 o          1 PVZ      -0.890500
     21 O21         15.8220     2.5650     4.9670 o          1 PVZ      -0.890500
     22 P22         13.6370     0.5890     3.3490 p5         1 PVZ       1.045200
     23 O23         13.9530     1.0690     1.8450 o          1 PVZ      -0.890500
     24 O24         14.8490    -0.0260     3.9350 o          1 PVZ      -0.890500
     25 O25         12.4450    -0.4920     3.3270 o          1 PVZ      -0.890500
     26 H01         -0.3610    -0.8850     0.5110 hc         1 PVZ       0.026033
     27 H01A        -0.3610     0.8840     0.5110 hc         1 PVZ       0.026033
     28 H01B        -0.3610     0.0000    -1.0210 hc         1 PVZ       0.026033
     29 H02          1.8910    -0.8850    -0.5100 hc         1 PVZ       0.042200
     30 H02A         1.8910     0.8850    -0.5100 hc         1 PVZ       0.042200
     31 H03          1.6770    -0.8840     1.9540 hc         1 PVZ       0.035200
     32 H03A         1.6770     0.8850     1.9540 hc         1 PVZ       0.035200
     33 H04          3.9310     0.8840     0.9340 hc         1 PVZ       0.046200
     34 H04A         3.9300    -0.8850     0.9340 hc         1 PVZ       0.046200
     35 H05          3.7170    -0.8860     3.3970 hc         1 PVZ       0.031700
     36 H05A         3.7170     0.8830     3.3980 hc         1 PVZ       0.031700
     37 H06          5.9690     0.8840     2.3770 hc         1 PVZ       0.054200
     38 H06A         5.9690    -0.8850     2.3760 hc         1 PVZ       0.054200
     39 H07          5.7560     0.8820     4.8410 hc         1 PVZ       0.024700
     40 H07A         5.7560    -0.8870     4.8400 hc         1 PVZ       0.024700
     41 H08          8.0090     0.8830     3.8200 hc         1 PVZ       0.081200
     42 H08A         8.0090    -0.8860     3.8200 hc         1 PVZ       0.081200
     43 H09          7.7960     0.8830     6.2840 h1         1 PVZ       0.034200
     44 H09A         7.7950    -0.8860     6.2850 h1         1 PVZ       0.034200
     45 H11         10.1170    -2.1400     5.7640 h4         1 PVZ       0.153000
     46 H12         12.5960    -1.2650     5.7700 h4         1 PVZ       0.227000
     47 H14         10.0890     2.1150     5.7800 h5         1 PVZ       0.215000
     48 H15         13.6910     1.0300     6.1770 h1         1 PVZ       0.081200
     49 H15A        12.6370     2.4320     6.4040 h1         1 PVZ       0.081200
     50 HO17        12.2110     3.1560     3.0530 ho         1 PVZ       0.423000
@<TRIPOS>BOND
     1     2     1 1
     2     1    26 1
     3     1    27 1
     4     1    28 1
     5     3     2 1
     6     2    29 1
     7     2    30 1
     8     4     3 1
     9     3    31 1
    10     3    32 1
    11     4     5 1
    12     4    33 1
    13     4    34 1
    14     5     6 1
    15     5    35 1
    16     5    36 1
    17     7     6 1
    18     6    37 1
    19     6    38 1
    20     7     8 1
    21     7    39 1
    22     7    40 1
    23     9     8 1
    24     8    41 1
    25     8    42 1
    26     9    10 1
    27     9    43 1
    28     9    44 1
    29    10    14 2
    30    10    11 1
    31    11    12 2
    32    11    45 1
    33    13    12 1
    34    12    46 1
    35    14    13 1
    36    13    15 1
    37    14    47 1
    38    16    15 1
    39    15    48 1
    40    15    49 1
    41    18    16 1
    42    16    17 1
    43    16    22 1
    44    17    50 1
    45    19    18 1
    46    21    18 1
    47    20    18 1
    48    24    22 1
    49    22    23 1
    50    22    25 1
@<TRIPOS>SUBSTRUCTURE
     1 PVZ         1 TEMP              0 ****  ****    0 ROOT
