@<TRIPOS>MOLECULE
PVZ
   50    48     1     0     0
SMALL
bcc


@<TRIPOS>ATOM
      1 C01         0.8810    0.6250   -0.2550 c3        1 PVZ     -0.206000
      2 C02         2.3650    0.6110    0.0120 c3        1 PVZ     -0.162000
      3 C03         2.6700    0.3140    1.4650 c3        1 PVZ     -0.155000
      4 C04         4.1610    0.3020    1.7250 c3        1 PVZ     -0.162000
      5 C05         4.4680    0.0050    3.1780 c3        1 PVZ     -0.153000
      6 C06         5.9610   -0.0060    3.4330 c3        1 PVZ     -0.165000
      7 C07         6.2760   -0.2990    4.8850 c3        1 PVZ     -0.144000
      8 C08         7.7690   -0.3120    5.1320 c3        1 PVZ     -0.196000
      9 C09         8.0950   -0.6070    6.5940 c3        1 PVZ     -0.102000
     10 N10         9.5020   -0.5890    7.0080 na        1 PVZ     -0.109000
     11 C11        10.3180   -1.5200    6.2460 c2        1 PVZ     -0.266000
     12 C12        11.3670   -0.8850    5.6390 c2        1 PVZ     -0.136000
     13 N13        11.3690    0.5190    5.9640 na        1 PVZ     -0.096000
     14 C14        10.2070    0.6780    6.8380 c2        1 PVZ     -0.490000
     15 C15        11.3820    1.3990    4.7860 c3        1 PVZ     -0.145000
     16 C16        12.4950    1.1760    3.8010 c1        1 PVZ     -0.132000
     17 O17        13.1350    2.2750    3.4920 oh        1 PVZ     -0.290000
     18 P18        13.4370    4.7580    3.4380 p3        1 PVZ      2.452500
     19 O19        14.1050    4.1830    2.2570 o         1 PVZ     -1.158000
     20 O20        12.0570    5.2750    3.3290 o         1 PVZ     -1.158000
     21 O21        14.2430    5.1570    4.6110 o         1 PVZ     -1.158000
     22 P22        13.2990   -0.3470    2.5380 p3        1 PVZ      2.452500
     23 O23        14.5080    0.4950    2.2790 o         1 PVZ     -1.158000
     24 O24        13.4880   -1.5650    3.3700 o         1 PVZ     -1.158000
     25 O25        12.2270   -0.3640    1.5080 o         1 PVZ     -1.158000
     26 H01         0.4270   -0.3650   -0.0070 hc        1 PVZ      0.061000
     27 H01A        0.6790    0.8470   -1.3300 hc        1 PVZ      0.061000
     28 H01B        0.3770    1.4050    0.3660 hc        1 PVZ      0.061000
     29 H02         2.8070    1.6050   -0.2650 hc        1 PVZ      0.080500
     30 H02A        2.8570   -0.1600   -0.6370 hc        1 PVZ      0.080500
     31 H03         2.2310   -0.6800    1.7440 hc        1 PVZ      0.068500
     32 H03A        2.1800    1.0850    2.1160 hc        1 PVZ      0.068500
     33 H04         4.6010    1.2960    1.4460 hc        1 PVZ      0.084500
     34 H04A        4.6510   -0.4690    1.0740 hc        1 PVZ      0.084500
     35 H05         3.9810    0.7770    3.8300 hc        1 PVZ      0.062500
     36 H05A        4.0300   -0.9890    3.4590 hc        1 PVZ      0.062500
     37 H06         6.4500   -0.7770    2.7820 hc        1 PVZ      0.090500
     38 H06A        6.4000    0.9870    3.1510 hc        1 PVZ      0.090500
     39 H07         5.8360   -1.2910    5.1710 hc        1 PVZ      0.051000
     40 H07A        5.7920    0.4750    5.5370 hc        1 PVZ      0.051000
     41 H08         8.2570   -1.0850    4.4810 hc        1 PVZ      0.095500
     42 H08A        8.2110    0.6800    4.8500 hc        1 PVZ      0.095500
     43 H09         7.5610    0.1530    7.2320 h1        1 PVZ      0.027000
     44 H09A        7.6700   -1.6200    6.8460 h1        1 PVZ      0.027000
     45 H11        10.0840   -2.5820    6.2740 h4        1 PVZ      0.099000
     46 H12        12.1700   -1.2930    5.0050 h4        1 PVZ      0.204000
     47 H14         9.5640    1.5540    6.6180 h5        1 PVZ      0.024000
     48 H15        11.3960    2.4510    5.1900 h1        1 PVZ      0.080500
     49 H15A       10.4440    1.2910    4.1560 h1        1 PVZ      0.080500
     50 HO17       13.8520    2.1310    2.7790 ho        1 PVZ      0.358000
@<TRIPOS>BOND
     1    1    2 1   
     2    1   26 1   
     3    1   27 1   
     4    1   28 1   
     5    2    3 1   
     6    2   29 1   
     7    2   30 1   
     8    3    4 1   
     9    3   31 1   
    10    3   32 1   
    11    4    5 1   
    12    4   33 1   
    13    4   34 1   
    14    5    6 1   
    15    5   35 1   
    16    5   36 1   
    17    6    7 1   
    18    6   37 1   
    19    6   38 1   
    20    7    8 1   
    21    7   39 1   
    22    7   40 1   
    23    8    9 1   
    24    8   41 1   
    25    8   42 1   
    26    9   10 1   
    27    9   43 1   
    28    9   44 1   
    29   10   11 1   
    30   10   14 1   
    31   11   12 1   
    32   11   45 1   
    33   12   13 1   
    34   12   46 1   
    35   13   14 1   
    36   13   15 1   
    37   14   47 1   
    38   15   16 1   
    39   15   48 1   
    40   15   49 1   
    41   16   17 1   
    42   17   50 1   
    43   18   19 1   
    44   18   20 1   
    45   18   21 1   
    46   22   23 1   
    47   22   24 1   
    48   22   25 1   
@<TRIPOS>SUBSTRUCTURE
     1 PVZ         1 TEMP              0 ****  ****    0 ROOT
