@<TRIPOS>MOLECULE
PW1
   29    30     1     0     0
SMALL
bcc


@<TRIPOS>ATOM
      1 C6           0.0000     0.0000     0.0000 ca         1 PW1      -0.020000
      2 C5           1.3830     0.0000     0.0000 ca         1 PW1      -0.116000
      3 C4           2.0760     0.0000     1.1970 ca         1 PW1       0.180900
      4 F            3.4270     0.0010     1.1970 f          1 PW1      -0.085900
      5 C3           1.3810    -0.0010     2.4010 ca         1 PW1       0.085100
      6 C8          -0.0070    -0.0020     2.3960 ca         1 PW1       0.127900
      7 C7          -0.6940    -0.0010     1.1960 ca         1 PW1      -0.250300
      8 C2          -2.2010    -0.0020     1.1900 c3         1 PW1       0.046100
      9 N3          -2.6910     1.3620     1.4300 nz         1 PW1       0.073400
     10 C13          3.3920     2.4670     5.8950 ca         1 PW1      -0.050500
     11 C12          3.0700     1.2460     5.3350 ca         1 PW1      -0.162000
     12 C11          2.3780     1.1970     4.1320 ca         1 PW1       0.119100
     13 C10          2.0110     2.3750     3.4970 ca         1 PW1      -0.162000
     14 O12          2.0600    -0.0020     3.5790 os         1 PW1      -0.193200
     15 C9           2.3360     3.5930     4.0620 ca         1 PW1      -0.050500
     16 F2          -0.6860    -0.0040     3.5640 f          1 PW1      -0.107900
     17 C14          3.0260     3.6390     5.2600 ca         1 PW1      -0.115000
     18 H21         -2.5650    -0.6590     1.9710 hx         1 PW1       0.088200
     19 H22         -2.5580    -0.3500     0.2290 hx         1 PW1       0.088200
     20 H6          -0.5410     0.0000    -0.9390 ha         1 PW1       0.121000
     21 H5           1.9240     0.0010    -0.9390 ha         1 PW1       0.149000
     22 H13          3.9320     2.5060     6.8330 ha         1 PW1       0.110500
     23 H14          3.2800     4.5950     5.7010 ha         1 PW1       0.117000
     24 H9           2.0510     4.5130     3.5660 ha         1 PW1       0.110500
     25 H10          1.4710     2.3400     2.5590 ha         1 PW1       0.109000
     26 H31         -3.6680     1.4080     1.2160 hn         1 PW1       0.225800
     27 H32         -2.1920     2.0040     0.8470 hn         1 PW1       0.225800
     28 H33         -2.5490     1.6040     2.3910 hn         1 PW1       0.225800
     29 H12          3.3570     0.3280     5.8330 ha         1 PW1       0.109000
@<TRIPOS>BOND
     1     1     2 ar  
     2     1     7 ar  
     3     1    20 1   
     4     2     3 ar  
     5     2    21 1   
     6     3     4 1   
     7     3     5 ar  
     8     5     6 ar  
     9     5    14 1   
    10     6     7 ar  
    11     6    16 1   
    12     7     8 1   
    13     8     9 1   
    14     8    18 1   
    15     8    19 1   
    16     9    26 1   
    17     9    27 1   
    18     9    28 1   
    19    10    11 ar  
    20    10    17 ar  
    21    10    22 1   
    22    11    12 ar  
    23    11    29 1   
    24    12    13 ar  
    25    12    14 1   
    26    13    15 ar  
    27    13    25 1   
    28    15    17 ar  
    29    15    24 1   
    30    17    23 1   
@<TRIPOS>SUBSTRUCTURE
     1 PW1         1 TEMP              0 ****  ****    0 ROOT
