@<TRIPOS>MOLECULE
PW3
   20    20     1     0     0
SMALL
bcc


@<TRIPOS>ATOM
      1 C01          0.0000     0.0000     0.0000 c3         1 PW3      -0.072100
      2 C02          1.5070     0.0000     0.0000 c          1 PW3       0.597100
      3 N03          2.1810     0.0000     1.1670 n          1 PW3      -0.179800
      4 C04          3.6500     0.0990     1.2040 c3         1 PW3       0.043000
      5 C05          4.0240     1.3760     1.9580 c3         1 PW3       0.026000
      6 N06          3.2580     1.4900     3.1920 ns         1 PW3      -0.174900
      7 C07          2.0980     0.8730     3.4230 c          1 PW3       0.599500
      8 C08          1.4800    -0.0940     2.4560 c3         1 PW3      -0.015000
      9 O09          1.5150     1.1070     4.4600 o          1 PW3      -0.686500
     10 O10          2.1130     0.0010    -1.0510 o          1 PW3      -0.640100
     11 H01         -0.3610    -0.8530     0.5620 hc         1 PW3       0.027700
     12 H01A        -0.3610     0.9130     0.4570 hc         1 PW3       0.027700
     13 H01B        -0.3610    -0.0610    -1.0200 hc         1 PW3       0.027700
     14 H04          4.0610    -0.7610     1.7180 h1         1 PW3       0.044700
     15 H04A         4.0370     0.1470     0.1930 h1         1 PW3       0.044700
     16 H05          3.8160     2.2340     1.3300 h1         1 PW3       0.023700
     17 H05A         5.0810     1.3510     2.1980 h1         1 PW3       0.023700
     18 HN06         3.6280     2.0720     3.9170 hn         1 PW3       0.184500
     19 H08          0.4340     0.1530     2.3170 h1         1 PW3       0.049700
     20 H08A         1.5710    -1.1010     2.8440 h1         1 PW3       0.049700
@<TRIPOS>BOND
     1     1     2 1   
     2     1    11 1   
     3     1    12 1   
     4     1    13 1   
     5     2     3 1   
     6     2    10 2   
     7     3     4 1   
     8     3     8 1   
     9     4     5 1   
    10     4    14 1   
    11     4    15 1   
    12     5     6 1   
    13     5    16 1   
    14     5    17 1   
    15     6     7 1   
    16     6    18 1   
    17     7     8 1   
    18     7     9 2   
    19     8    19 1   
    20     8    20 1   
@<TRIPOS>SUBSTRUCTURE
     1 PW3         1 TEMP              0 ****  ****    0 ROOT
