@<TRIPOS>MOLECULE
molecule
   40    41     1     0     0
SMALL
bcc


@<TRIPOS>ATOM
      1 CAA          0.0000     0.0000     0.0000 c3         1 PWF       0.124700
      2 OAP          1.4300     0.0000     0.0000 os         1 PWF      -0.312900
      3 CAV          2.0470     0.0000     1.2120 ca         1 PWF       0.121100
      4 CAM          1.2950     0.0010     2.3690 ca         1 PWF      -0.185000
      5 CAT          3.4400    -0.0050     1.2840 ca         1 PWF       0.096100
      6 OAC          4.1770    -0.0100     0.1440 oh         1 PWF      -0.502100
      7 CAL          4.0750    -0.0050     2.5190 ca         1 PWF      -0.136000
      8 CAK          3.3320     0.0010     3.6800 ca         1 PWF      -0.128000
      9 CAS          1.9340     0.0000     3.6160 ca         1 PWF      -0.060800
     10 CAE          1.1390     0.0000     4.8510 ce         1 PWF      -0.006200
     11 CAD          1.7590     0.0000     6.0520 cf         1 PWF      -0.236200
     12 CAR          0.9920    -0.0000     7.2440 c          1 PWF       0.645300
     13 OAB         -0.2240    -0.0010     7.1860 o          1 PWF      -0.562000
     14 OAQ          1.6090    -0.0000     8.4440 os         1 PWF      -0.427900
     15 CAN          0.7740    -0.0010     9.6050 c3         1 PWF       0.150400
     16 CAO          1.6480    -0.0010    10.8600 c3         1 PWF      -0.037100
     17 CAU          0.7680    -0.0020    12.0840 ca         1 PWF      -0.088300
     18 CAI          0.3600     1.1950    12.6420 ca         1 PWF      -0.120500
     19 CAG         -0.4480     1.1950    13.7640 ca         1 PWF      -0.126000
     20 CAF         -0.8470    -0.0030    14.3280 ca         1 PWF      -0.126000
     21 CAH         -0.4380    -1.1990    13.7690 ca         1 PWF      -0.126000
     22 CAJ          0.3650    -1.1990    12.6450 ca         1 PWF      -0.120500
     23 H1          -0.3610     0.8850     0.5100 h1         1 PWF       0.043700
     24 H2          -0.3610    -0.8840     0.5110 h1         1 PWF       0.043700
     25 H3          -0.3610    -0.0010    -1.0210 h1         1 PWF       0.043700
     26 H4           0.2130     0.0000     2.3140 ha         1 PWF       0.146000
     27 H5           4.5610     0.8410     0.0140 ho         1 PWF       0.419000
     28 H6           5.1570    -0.0070     2.5700 ha         1 PWF       0.147000
     29 H7           3.8300     0.0000     4.6420 ha         1 PWF       0.141000
     30 H8           0.0570    -0.0000     4.8000 ha         1 PWF       0.158000
     31 H10          2.8410     0.0000     6.1040 ha         1 PWF       0.147000
     32 H12          0.1490    -0.8860     9.5990 h1         1 PWF       0.051700
     33 H13          0.1490     0.8830     9.6000 h1         1 PWF       0.051700
     34 H14          2.2730     0.8830    10.8650 hc         1 PWF       0.059700
     35 H15          2.2740    -0.8860    10.8650 hc         1 PWF       0.059700
     36 H16          0.6720     2.1340    12.2000 ha         1 PWF       0.131500
     37 H17         -0.7680     2.1330    14.2010 ha         1 PWF       0.130500
     38 H18         -1.4780    -0.0040    15.2090 ha         1 PWF       0.130000
     39 H19         -0.7520    -2.1370    14.2100 ha         1 PWF       0.130500
     40 H20          0.6850    -2.1370    12.2070 ha         1 PWF       0.131500
@<TRIPOS>BOND
     1     6     5 1
     2     1     2 1
     3     5     7 ar
     4     5     3 ar
     5     2     3 1
     6     7     8 ar
     7     3     4 ar
     8     8     9 ar
     9     4     9 ar
    10     9    10 1
    11    10    11 2
    12    11    12 1
    13    12    13 2
    14    12    14 1
    15    15    14 1
    16    15    16 1
    17    16    17 1
    18    17    22 ar
    19    17    18 ar
    20    22    21 ar
    21    18    19 ar
    22    21    20 ar
    23    19    20 ar
    24     1    23 1
    25     1    24 1
    26     1    25 1
    27     4    26 1
    28     6    27 1
    29     7    28 1
    30     8    29 1
    31    10    30 1
    32    11    31 1
    33    15    32 1
    34    15    33 1
    35    16    34 1
    36    16    35 1
    37    18    36 1
    38    19    37 1
    39    20    38 1
    40    21    39 1
    41    22    40 1
@<TRIPOS>SUBSTRUCTURE
     1 PWF         1 TEMP              0 ****  ****    0 ROOT
