@<TRIPOS>MOLECULE
PWF
   40    41     1     0     0
SMALL
bcc


@<TRIPOS>ATOM
      1 CAA         0.8440    0.6580    0.1300 c3        1 PWF      0.109700
      2 OAP         1.9880    0.0960    0.7620 os        1 PWF     -0.302900
      3 CAV         1.9750    0.0950    2.1430 ca        1 PWF      0.099100
      4 CAM         0.9880    0.6790    2.9330 ca        1 PWF     -0.157000
      5 CAT         3.0790   -0.5520    2.7590 ca        1 PWF      0.117100
      6 OAC         4.0230   -1.1020    1.9280 oh        1 PWF     -0.472100
      7 CAL         3.1640   -0.5980    4.1520 ca        1 PWF     -0.193000
      8 CAK         2.1650   -0.0180    4.9330 ca        1 PWF     -0.100000
      9 CAS         1.0750    0.6190    4.3360 ca        1 PWF     -0.080800
     10 CAE         0.0300    1.2560    5.1210 ce        1 PWF     -0.040200
     11 CAD        -0.4520    0.8680    6.3060 cf        1 PWF     -0.196200
     12 CAR        -0.0620   -0.3350    7.0540 c         1 PWF      0.638300
     13 OAB        -0.5080   -1.4800    6.9620 o         1 PWF     -0.529000
     14 OAQ         0.8900   -0.0890    8.0100 os        1 PWF     -0.442900
     15 CAN         1.2590   -1.1970    8.8490 c3        1 PWF      0.139400
     16 CAO         2.1580   -0.6360    9.9400 c3        1 PWF     -0.042100
     17 CAU         1.4000   -0.2030   11.1440 ca        1 PWF     -0.082300
     18 CAI         1.3130    1.1530   11.4800 ca        1 PWF     -0.123500
     19 CAG         0.6150    1.5510   12.6200 ca        1 PWF     -0.129000
     20 CAF        -0.0020    0.6000   13.4320 ca        1 PWF     -0.130000
     21 CAH         0.0800   -0.7530   13.1010 ca        1 PWF     -0.129000
     22 CAJ         0.7770   -1.1530   11.9630 ca        1 PWF     -0.123500
     23 H1          0.7590    1.7470    0.3650 h1        1 PWF      0.045033
     24 H2          1.0520    0.5060   -0.9600 h1        1 PWF      0.045033
     25 H3         -0.0850    0.1180    0.4330 h1        1 PWF      0.045033
     26 H4          0.1290    1.1850    2.4680 ha        1 PWF      0.142000
     27 H5          4.6990   -1.5160    2.4850 ho        1 PWF      0.417000
     28 H6          4.0190   -1.0960    4.6320 ha        1 PWF      0.139000
     29 H7          2.2430   -0.0590    6.0320 ha        1 PWF      0.149000
     30 H8         -0.4050    2.1590    4.6500 ha        1 PWF      0.134000
     31 H10        -1.2370    1.4500    6.8210 ha        1 PWF      0.158000
     32 H12         1.8060   -1.9430    8.2140 h1        1 PWF      0.055700
     33 H13         0.3340   -1.6740    9.2670 h1        1 PWF      0.055700
     34 H14         2.7490    0.2230    9.5230 hc        1 PWF      0.063200
     35 H15         2.8850   -1.4420   10.2330 hc        1 PWF      0.063200
     36 H16         1.7950    1.9070   10.8400 ha        1 PWF      0.132500
     37 H17         0.5510    2.6180   12.8770 ha        1 PWF      0.131500
     38 H18        -0.5520    0.9150   14.3300 ha        1 PWF      0.131000
     39 H19        -0.4060   -1.5050   13.7390 ha        1 PWF      0.131500
     40 H20         0.8410   -2.2210   11.7040 ha        1 PWF      0.132500
@<TRIPOS>BOND
     1    1    2 1   
     2    1   23 1   
     3    1   24 1   
     4    1   25 1   
     5    2    3 1   
     6    3    4 ar  
     7    3    5 ar  
     8    4    9 ar  
     9    4   26 1   
    10    5    6 1   
    11    5    7 ar  
    12    6   27 1   
    13    7    8 ar  
    14    7   28 1   
    15    8    9 ar  
    16    8   29 1   
    17    9   10 1   
    18   10   11 2   
    19   10   30 1   
    20   11   12 1   
    21   11   31 1   
    22   12   13 2   
    23   12   14 1   
    24   14   15 1   
    25   15   16 1   
    26   15   32 1   
    27   15   33 1   
    28   16   17 1   
    29   16   34 1   
    30   16   35 1   
    31   17   18 ar  
    32   17   22 ar  
    33   18   19 ar  
    34   18   36 1   
    35   19   20 ar  
    36   19   37 1   
    37   20   21 ar  
    38   20   38 1   
    39   21   22 ar  
    40   21   39 1   
    41   22   40 1   
@<TRIPOS>SUBSTRUCTURE
     1 PWF         1 TEMP              0 ****  ****    0 ROOT
