@<TRIPOS>MOLECULE
PWH
   34    34     1     0     0
SMALL
bcc


@<TRIPOS>ATOM
      1 CAA         2.2270   -1.2450   -0.9840 c3        1 PWH     -0.062400
      2 CAN         1.1900   -0.2140   -0.7400 c2        1 PWH     -0.109400
      3 CAB         0.2040   -0.5190    0.3250 c3        1 PWH     -0.062400
      4 CAH         1.1410    0.9310   -1.4380 c2        1 PWH     -0.188200
      5 CAL         2.1170    1.2520   -2.5090 c3        1 PWH      0.175600
      6 OAM         1.7700    2.5580   -3.0080 os        1 PWH     -0.434900
      7 CAO         2.5500    3.0460   -4.0230 c         1 PWH      0.644300
      8 OAC         3.4910    2.3470   -4.4110 o         1 PWH     -0.550000
      9 CAF         2.1390    4.3920   -4.4350 ce        1 PWH     -0.206200
     10 CAG         1.9220    4.8270   -5.6810 cf        1 PWH     -0.025200
     11 CAP         2.0210    4.1010   -6.9370 ca        1 PWH     -0.089800
     12 CAK         1.0230    4.3180   -7.9010 ca        1 PWH     -0.117000
     13 CAR         1.0900    3.6620   -9.1330 ca        1 PWH      0.103100
     14 OAE         0.0810    3.9060  -10.0350 oh        1 PWH     -0.495100
     15 CAQ         2.1710    2.7950   -9.4080 ca        1 PWH      0.055100
     16 OAD         2.1670    2.1920  -10.6480 oh        1 PWH     -0.515100
     17 CAJ         3.1670    2.5910   -8.4510 ca        1 PWH     -0.176000
     18 CAI         3.0890    3.2420   -7.2220 ca        1 PWH     -0.096000
     19 H1          2.1900   -1.5900   -2.0480 hc        1 PWH      0.043700
     20 H2          3.2470   -0.8220   -0.7960 hc        1 PWH      0.043700
     21 H3          2.0840   -2.1310   -0.3200 hc        1 PWH      0.043700
     22 H4          0.7300   -0.6750    1.3000 hc        1 PWH      0.043700
     23 H5         -0.5370    0.3080    0.4520 hc        1 PWH      0.043700
     24 H6         -0.3510   -1.4570    0.0740 hc        1 PWH      0.043700
     25 H7          0.3670    1.6930   -1.2520 ha        1 PWH      0.144000
     26 H8          3.1710    1.2820   -2.1200 h1        1 PWH      0.059200
     27 H9          2.0650    0.5160   -3.3560 h1        1 PWH      0.059200
     28 H10         1.9800    5.0700   -3.5760 ha        1 PWH      0.156000
     29 H12         1.5920    5.8790   -5.8050 ha        1 PWH      0.136000
     30 H14         0.1790    4.9950   -7.7000 ha        1 PWH      0.154000
     31 H15         0.2560    3.3780  -10.8290 ho        1 PWH      0.437000
     32 H16         2.9400    1.6110  -10.6970 ho        1 PWH      0.432000
     33 H17         4.0090    1.9170   -8.6660 ha        1 PWH      0.141000
     34 H18         3.8760    3.0720   -6.4670 ha        1 PWH      0.170000
@<TRIPOS>BOND
     1    1    2 1   
     2    1   19 1   
     3    1   20 1   
     4    1   21 1   
     5    2    3 1   
     6    2    4 2   
     7    3   22 1   
     8    3   23 1   
     9    3   24 1   
    10    4    5 1   
    11    4   25 1   
    12    5    6 1   
    13    5   26 1   
    14    5   27 1   
    15    6    7 1   
    16    7    8 2   
    17    7    9 1   
    18    9   10 2   
    19    9   28 1   
    20   10   11 1   
    21   10   29 1   
    22   11   12 ar  
    23   11   18 ar  
    24   12   13 ar  
    25   12   30 1   
    26   13   14 1   
    27   13   15 ar  
    28   14   31 1   
    29   15   16 1   
    30   15   17 ar  
    31   16   32 1   
    32   17   18 ar  
    33   17   33 1   
    34   18   34 1   
@<TRIPOS>SUBSTRUCTURE
     1 PWH         1 TEMP              0 ****  ****    0 ROOT
