@<TRIPOS>MOLECULE
molecule
   34    34     1     0     0
SMALL
bcc


@<TRIPOS>ATOM
      1 CAA          0.0000     0.0000     0.0000 c3         1 PWH      -0.104900
      2 CAN          1.5070     0.0000     0.0000 c2         1 PWH       0.071600
      3 CAB          2.2610     0.0000     1.3040 c3         1 PWH      -0.104900
      4 CAH          2.1630     0.0000    -1.1350 c2         1 PWH      -0.494200
      5 CAL          1.4090     0.0010    -2.4400 c3         1 PWH       0.150600
      6 OAM          1.9950     0.9530    -3.3280 os         1 PWH      -0.373900
      7 CAO          1.4350     1.0790    -4.5500 c          1 PWH       0.637300
      8 OAC          0.4740     0.3960    -4.8500 o          1 PWH      -0.572000
      9 CAF          1.9670     2.0050    -5.4820 ce         1 PWH      -0.232200
     10 CAG          1.4050     2.1310    -6.7040 cf         1 PWH      -0.008200
     11 CAP          1.9560     3.0910    -7.6710 ca         1 PWH      -0.082800
     12 CAK          1.3760     3.2230    -8.9390 ca         1 PWH      -0.131000
     13 CAR          1.8970     4.1270    -9.8420 ca         1 PWH       0.089100
     14 OAE          1.3370     4.2570   -11.0730 oh         1 PWH      -0.508100
     15 CAQ          3.0000     4.9060    -9.4910 ca         1 PWH       0.106100
     16 OAD          3.5140     5.7910   -10.3840 oh         1 PWH      -0.509100
     17 CAJ          3.5760     4.7760    -8.2350 ca         1 PWH      -0.156000
     18 CAI          3.0580     3.8810    -7.3240 ca         1 PWH      -0.102000
     19 H1          -0.3610     0.8980    -0.4870 hc         1 PWH       0.058700
     20 H2          -0.3610    -0.0270     1.0210 hc         1 PWH       0.058700
     21 H3          -0.3610    -0.8710    -0.5340 hc         1 PWH       0.058700
     22 H4           1.9660    -0.8610     1.8920 hc         1 PWH       0.058700
     23 H5           2.0340     0.9060     1.8530 hc         1 PWH       0.058700
     24 H6           3.3250    -0.0450     1.1070 hc         1 PWH       0.058700
     25 H7           1.6970    -0.8740    -1.5730 ha         1 PWH       0.313000
     26 H8           1.4570    -0.9860    -2.8850 h1         1 PWH       0.029700
     27 H9           0.3740     0.2650    -2.2600 h1         1 PWH       0.029700
     28 H10          2.8230     2.6120    -5.2140 ha         1 PWH       0.149000
     29 H12          0.5490     1.5240    -6.9710 ha         1 PWH       0.158000
     30 H14          0.4780     2.6690    -9.1840 ha         1 PWH       0.149000
     31 H15          1.5360     3.4950   -11.5920 ho         1 PWH       0.425000
     32 H16          3.2710     6.6670   -10.1330 ho         1 PWH       0.426000
     33 H17          4.4300     5.3860    -7.9670 ha         1 PWH       0.147000
     34 H18          3.5100     3.7820    -6.3450 ha         1 PWH       0.144000
@<TRIPOS>BOND
     1    16    15 1
     2    15    17 ar
     3    15    13 ar
     4    14    13 1
     5    17    18 ar
     6    13    12 ar
     7    18    11 ar
     8    12    11 ar
     9    11    10 1
    10    10     9 2
    11     9     7 1
    12     7     6 1
    13     7     8 2
    14     6     5 1
    15     5     4 1
    16     4     2 2
    17     2     3 1
    18     2     1 1
    19     1    19 1
    20     1    20 1
    21     1    21 1
    22     3    22 1
    23     3    23 1
    24     3    24 1
    25     4    25 1
    26     5    26 1
    27     5    27 1
    28     9    28 1
    29    10    29 1
    30    12    30 1
    31    14    31 1
    32    16    32 1
    33    17    33 1
    34    18    34 1
@<TRIPOS>SUBSTRUCTURE
     1 PWH         1 TEMP              0 ****  ****    0 ROOT
