@<TRIPOS>MOLECULE
PWK
   50    51     1     0     0
SMALL
bcc


@<TRIPOS>ATOM
      1 CAA        -0.3360    0.2200    0.5160 c3        1 PWK      0.121700
      2 OAO         1.0690    0.4130    0.4090 os        1 PWK     -0.348900
      3 CAU         1.7900    0.2850    1.5860 ca        1 PWK      0.045100
      4 CAK         1.2370    0.0490    2.8430 ca        1 PWK     -0.161000
      5 CAS         3.1910    0.4200    1.4380 ca        1 PWK      0.109100
      6 OAE         3.7960    0.6560    0.2270 oh        1 PWK     -0.496100
      7 CAI         4.0190    0.3150    2.5610 ca        1 PWK     -0.135000
      8 CAG         3.4550    0.0790    3.8130 ca        1 PWK     -0.124000
      9 CAQ         2.0720   -0.0540    3.9640 ca        1 PWK     -0.081300
     10 CAM         1.4730   -0.2930    5.3060 c3        1 PWK     -0.034100
     11 CAW         1.0540   -1.7510    5.5000 c3        1 PWK     -0.059700
     12 CAC         2.2740   -2.5870    5.8260 c3        1 PWK     -0.091100
     13 CAX        -0.0210   -1.8530    6.5860 c3        1 PWK     -0.059700
     14 CAD        -0.1330   -3.2560    7.1470 c3        1 PWK     -0.091100
     15 CAN        -1.3780   -1.4190    6.0290 c3        1 PWK     -0.034100
     16 CAR        -2.3130   -0.9820    7.1020 ca        1 PWK     -0.081300
     17 CAL        -2.1570    0.2860    7.6790 ca        1 PWK     -0.161000
     18 CAH        -3.3470   -1.8170    7.5320 ca        1 PWK     -0.124000
     19 CAJ        -4.2320   -1.4070    8.5270 ca        1 PWK     -0.135000
     20 CAT        -4.0830   -0.1430    9.1070 ca        1 PWK      0.109100
     21 OAF        -4.9830    0.2150   10.0830 oh        1 PWK     -0.496100
     22 CAV        -3.0360    0.7060    8.6760 ca        1 PWK      0.045100
     23 OAP        -2.9880    1.9350    9.3150 os        1 PWK     -0.348900
     24 CAB        -1.9090    2.7860    8.9470 c3        1 PWK      0.121700
     25 H1         -0.7900    0.9980    1.1770 h1        1 PWK      0.045700
     26 H2         -0.5660   -0.8030    0.9000 h1        1 PWK      0.045700
     27 H3         -0.6960    0.3380   -0.5380 h1        1 PWK      0.045700
     28 H4          0.1500   -0.0580    2.9690 ha        1 PWK      0.138000
     29 H5          3.1060    0.6930   -0.4530 ho        1 PWK      0.436000
     30 H6          5.1060    0.4210    2.4380 ha        1 PWK      0.152000
     31 H7          4.1120   -0.0040    4.6920 ha        1 PWK      0.136000
     32 H8          2.2070   -0.0130    6.1090 hc        1 PWK      0.047200
     33 H9          0.5810    0.3790    5.4300 hc        1 PWK      0.047200
     34 H10         0.6130   -2.1290    4.5340 hc        1 PWK      0.051700
     35 H11         2.0390   -3.6760    5.7530 hc        1 PWK      0.036700
     36 H12         2.6380   -2.3700    6.8590 hc        1 PWK      0.036700
     37 H13         3.0960   -2.3540    5.1040 hc        1 PWK      0.036700
     38 H14         0.2610   -1.1560    7.4250 hc        1 PWK      0.051700
     39 H15        -1.0340   -3.3290    7.8050 hc        1 PWK      0.036700
     40 H16         0.7690   -3.5120    7.7540 hc        1 PWK      0.036700
     41 H17        -0.2340   -4.0040    6.3250 hc        1 PWK      0.036700
     42 H18        -1.2380   -0.5730    5.3030 hc        1 PWK      0.047200
     43 H19        -1.8270   -2.2720    5.4530 hc        1 PWK      0.047200
     44 H20        -1.3400    0.9370    7.3380 ha        1 PWK      0.138000
     45 H21        -3.4680   -2.8130    7.0800 ha        1 PWK      0.136000
     46 H22        -5.0480   -2.0610    8.8670 ha        1 PWK      0.152000
     47 H23        -4.7510    1.1030   10.3950 ho        1 PWK      0.436000
     48 H24        -1.9790    3.0640    7.8670 h1        1 PWK      0.045700
     49 H25        -2.0540    3.6860    9.5970 h1        1 PWK      0.045700
     50 H26        -0.9290    2.2960    9.1630 h1        1 PWK      0.045700
@<TRIPOS>BOND
     1    1    2 1   
     2    1   25 1   
     3    1   26 1   
     4    1   27 1   
     5    2    3 1   
     6    3    4 ar  
     7    3    5 ar  
     8    4    9 ar  
     9    4   28 1   
    10    5    6 1   
    11    5    7 ar  
    12    6   29 1   
    13    7    8 ar  
    14    7   30 1   
    15    8    9 ar  
    16    8   31 1   
    17    9   10 1   
    18   10   11 1   
    19   10   32 1   
    20   10   33 1   
    21   11   12 1   
    22   11   13 1   
    23   11   34 1   
    24   12   35 1   
    25   12   36 1   
    26   12   37 1   
    27   13   14 1   
    28   13   15 1   
    29   13   38 1   
    30   14   39 1   
    31   14   40 1   
    32   14   41 1   
    33   15   16 1   
    34   15   42 1   
    35   15   43 1   
    36   16   17 ar  
    37   16   18 ar  
    38   17   22 ar  
    39   17   44 1   
    40   18   19 ar  
    41   18   45 1   
    42   19   20 ar  
    43   19   46 1   
    44   20   21 1   
    45   20   22 ar  
    46   21   47 1   
    47   22   23 1   
    48   23   24 1   
    49   24   48 1   
    50   24   49 1   
    51   24   50 1   
@<TRIPOS>SUBSTRUCTURE
     1 PWK         1 TEMP              0 ****  ****    0 ROOT
