@<TRIPOS>MOLECULE
molecule
   50    51     1     0     0
SMALL
bcc


@<TRIPOS>ATOM
      1 CAA          0.0000     0.0000     0.0000 c3         1 PWK       0.126700
      2 OAO          1.4290     0.0000     0.0000 os         1 PWK      -0.312400
      3 CAU          2.0470     0.0000     1.2120 ca         1 PWK       0.128600
      4 CAK          1.2930    -0.0060     2.3740 ca         1 PWK      -0.205500
      5 CAS          3.4370     0.0010     1.2860 ca         1 PWK       0.080600
      6 OAE          4.1790     0.0010     0.1480 oh         1 PWK      -0.500100
      7 CAI          4.0610     0.0010     2.5230 ca         1 PWK      -0.143000
      8 CAG          3.3030     0.0010     3.6800 ca         1 PWK      -0.146000
      9 CAQ          1.9230    -0.0060     3.6060 ca         1 PWK      -0.056300
     10 CAM          1.1020    -0.0120     4.8700 c3         1 PWK      -0.036100
     11 CAW          0.8300    -1.4580     5.2940 c3         1 PWK      -0.066200
     12 CAC          2.1510    -2.1360     5.6650 c3         1 PWK      -0.094100
     13 CAX         -0.1050    -1.4660     6.5040 c3         1 PWK      -0.066200
     14 CAD         -0.3760    -2.9110     6.9290 c3         1 PWK      -0.094100
     15 CAN         -1.4250    -0.7880     6.1330 c3         1 PWK      -0.036100
     16 CAR         -2.2990    -0.6870     7.3570 ca         1 PWK      -0.056300
     17 CAL         -2.2200     0.4290     8.1700 ca         1 PWK      -0.205500
     18 CAH         -3.1810    -1.7070     7.6600 ca         1 PWK      -0.146000
     19 CAJ         -3.9860    -1.6180     8.7820 ca         1 PWK      -0.143000
     20 CAT         -3.9080    -0.5060     9.6040 ca         1 PWK       0.080600
     21 OAF         -4.6980    -0.4190    10.7080 oh         1 PWK      -0.500100
     22 CAV         -3.0230     0.5230     9.2960 ca         1 PWK       0.128600
     23 OAP         -2.9440     1.6180    10.0990 os         1 PWK      -0.312400
     24 CAB         -2.0140     2.6350     9.7210 c3         1 PWK       0.126700
     25 H1          -0.3610     0.0210    -1.0210 h1         1 PWK       0.040867
     26 H2          -0.3610    -0.8950     0.4920 h1         1 PWK       0.040867
     27 H3          -0.3610     0.8740     0.5290 h1         1 PWK       0.040867
     28 H4           0.2110    -0.0110     2.3190 ha         1 PWK       0.139500
     29 H5           4.7140    -0.7750     0.1210 ho         1 PWK       0.414000
     30 H6           5.1430     0.0040     2.5840 ha         1 PWK       0.140000
     31 H7           3.7920     0.0010     4.6470 ha         1 PWK       0.134500
     32 H8           0.1610     0.4950     4.6920 hc         1 PWK       0.051200
     33 H9           1.6450     0.4990     5.6560 hc         1 PWK       0.051200
     34 H10          0.3660    -1.9940     4.4750 hc         1 PWK       0.055700
     35 H11          2.5990    -2.5650     4.7760 hc         1 PWK       0.038367
     36 H12          2.8260    -1.4040     6.0920 hc         1 PWK       0.038367
     37 H13          1.9640    -2.9200     6.3890 hc         1 PWK       0.038367
     38 H14          0.3590    -0.9300     7.3230 hc         1 PWK       0.055700
     39 H15          0.4710    -3.2870     7.4900 hc         1 PWK       0.038367
     40 H16         -1.2640    -2.9450     7.5490 hc         1 PWK       0.038367
     41 H17         -0.5260    -3.5240     6.0480 hc         1 PWK       0.038367
     42 H18         -1.2250     0.2060     5.7490 hc         1 PWK       0.051200
     43 H19         -1.9310    -1.3730     5.3740 hc         1 PWK       0.051200
     44 H20         -1.5310     1.2280     7.9270 ha         1 PWK       0.139500
     45 H21         -3.2430    -2.5770     7.0170 ha         1 PWK       0.134500
     46 H22         -4.6770    -2.4190     9.0170 ha         1 PWK       0.140000
     47 H23         -4.5160    -1.1430    11.2830 ho         1 PWK       0.414000
     48 H24         -2.2670     3.0060     8.7350 h1         1 PWK       0.040867
     49 H25         -2.0590     3.4480    10.4350 h1         1 PWK       0.040867
     50 H26         -1.0130     2.2210     9.7060 h1         1 PWK       0.040867
@<TRIPOS>BOND
     1    21    20 1
     2    20    19 ar
     3    20    22 ar
     4    23    22 1
     5    23    24 1
     6    19    18 ar
     7    22    17 ar
     8    18    16 ar
     9    17    16 ar
    10    16    15 1
    11    15    13 1
    12    14    13 1
    13    13    11 1
    14    11    12 1
    15    11    10 1
    16    10     9 1
    17     9     4 ar
    18     9     8 ar
    19     4     3 ar
    20     8     7 ar
    21     3     2 1
    22     3     5 ar
    23     2     1 1
    24     7     5 ar
    25     5     6 1
    26     1    25 1
    27     1    26 1
    28     1    27 1
    29     4    28 1
    30     6    29 1
    31     7    30 1
    32     8    31 1
    33    10    32 1
    34    10    33 1
    35    11    34 1
    36    12    35 1
    37    12    36 1
    38    12    37 1
    39    13    38 1
    40    14    39 1
    41    14    40 1
    42    14    41 1
    43    15    42 1
    44    15    43 1
    45    17    44 1
    46    18    45 1
    47    19    46 1
    48    21    47 1
    49    24    48 1
    50    24    49 1
    51    24    50 1
@<TRIPOS>SUBSTRUCTURE
     1 PWK         1 TEMP              0 ****  ****    0 ROOT
