@<TRIPOS>MOLECULE
PWU
   62    66     1     0     0
SMALL
bcc


@<TRIPOS>ATOM
      1 O            0.0000     0.0000     0.0000 o          1 PWU      -0.554000
      2 C11          1.2140     0.0000     0.0000 c          1 PWU       0.695100
      3 O1           1.8870     0.0000     1.1660 os         1 PWU      -0.402900
      4 C12          1.0970     0.0010     2.3840 c3         1 PWU       0.185100
      5 C14          1.8660    -0.7200     3.4920 c3         1 PWU      -0.019600
      6 C13          0.8200     1.4440     2.8110 c3         1 PWU      -0.019600
      7 N1           1.8880    -0.0070    -1.1680 n          1 PWU       0.240800
      8 C5           2.2870     1.1200    -1.8640 cc         1 PWU      -0.066600
      9 C7           2.0400     2.5170    -1.4410 cc         1 PWU      -0.262100
     10 C9           1.3650     2.9260    -0.2730 cc         1 PWU       0.376200
     11 N3           1.3490     4.2330    -0.2520 nd         1 PWU      -0.640800
     12 N2           2.0080     4.7050    -1.3930 na         1 PWU       0.498400
     13 C10          2.2080     6.1130    -1.7470 c3         1 PWU       0.021600
     14 C8           2.4290     3.6440    -2.1090 cd         1 PWU      -0.227300
     15 C6           2.9390     0.7490    -2.9910 cd         1 PWU      -0.128200
     16 C            2.9570    -0.7150    -3.0160 ca         1 PWU      -0.263100
     17 C4           2.2900    -1.1380    -1.8460 ca         1 PWU      -0.081400
     18 C3           2.1690    -2.5020    -1.6170 ca         1 PWU      -0.303300
     19 C2           2.7090    -3.3870    -2.5390 ca         1 PWU       0.511200
     20 N            3.3340    -2.9530    -3.6270 nb         1 PWU      -0.647000
     21 C1           3.4660    -1.6690    -3.8930 ca         1 PWU       0.503200
     22 N4           2.5940    -4.7570    -2.3180 nu         1 PWU      -0.315300
     23 C15          3.0310    -5.6610    -3.2900 ca         1 PWU       0.004600
     24 C20          3.5590    -6.8890    -2.9080 ca         1 PWU      -0.119000
     25 C19          3.9900    -7.7820    -3.8650 ca         1 PWU      -0.096000
     26 C18          3.8980    -7.4520    -5.2180 ca         1 PWU      -0.002000
     27 C17          3.3680    -6.2180    -5.5980 ca         1 PWU      -0.096000
     28 C16          2.9330    -5.3320    -4.6370 ca         1 PWU      -0.119000
     29 C21          4.3600    -8.4080    -6.2470 cc         1 PWU      -0.357600
     30 C23          4.0160    -8.4190    -7.5630 cd         1 PWU       0.333200
     31 N6           4.6510    -9.4420    -8.1470 nd         1 PWU      -0.616000
     32 C22          5.3750   -10.0700    -7.2600 cc         1 PWU       0.189800
     33 C24          6.2370   -11.2760    -7.5300 c3         1 PWU       0.008600
     34 N5           5.2310    -9.4590    -6.0630 na         1 PWU       0.306100
     35 C25          5.8760    -9.8440    -4.8060 c3         1 PWU      -0.029400
     36 H12          0.1580    -0.5090     2.2050 h1         1 PWU       0.038700
     37 H141         1.2800    -0.7120     4.4030 hc         1 PWU       0.018033
     38 H142         2.0560    -1.7440     3.1930 hc         1 PWU       0.018033
     39 H143         2.8090    -0.2140     3.6650 hc         1 PWU       0.018033
     40 H131         0.0080     1.8460     2.2170 hc         1 PWU       0.018033
     41 H132         1.7090     2.0430     2.6590 hc         1 PWU       0.018033
     42 H133         0.5450     1.4640     3.8580 hc         1 PWU       0.018033
     43 H6           3.3660     1.4110    -3.7350 ha         1 PWU       0.131000
     44 H9           0.9340     2.2730     0.4750 h4         1 PWU       0.021100
     45 H8           2.9710     3.6780    -3.0460 h4         1 PWU       0.151000
     46 H101         1.7410     6.7430    -1.0000 h1         1 PWU       0.023033
     47 H102         1.7630     6.3100    -2.7150 h1         1 PWU       0.023033
     48 H103         3.2690     6.3280    -1.7880 h1         1 PWU       0.023033
     49 H1           3.9830    -1.3550    -4.7910 h4         1 PWU      -0.021900
     50 H3           1.6610    -2.8690    -0.7330 ha         1 PWU       0.119000
     51 H4           2.1670    -5.0940    -1.4770 hn         1 PWU       0.285800
     52 H20          3.6300    -7.1440    -1.8580 ha         1 PWU       0.121000
     53 H16          2.5210    -4.3740    -4.9310 ha         1 PWU       0.121000
     54 H19          4.4020    -8.7390    -3.5670 ha         1 PWU       0.111000
     55 H17          3.2930    -5.9600    -6.6480 ha         1 PWU       0.111000
     56 H23          3.3450    -7.7220    -8.0520 h4         1 PWU       0.006100
     57 H241         5.9250   -12.0930    -6.8900 hc         1 PWU       0.011033
     58 H242         6.1320   -11.5700    -8.5670 hc         1 PWU       0.011033
     59 H243         7.2730   -11.0330    -7.3260 hc         1 PWU       0.011033
     60 H251         6.6780   -10.5430    -5.0110 h1         1 PWU       0.029033
     61 H252         6.2810    -8.9630    -4.3230 h1         1 PWU       0.029033
     62 H253         5.1480   -10.3110    -4.1550 h1         1 PWU       0.029033
@<TRIPOS>BOND
     1     1     2 2   
     2     2     3 1   
     3     2     7 1   
     4     3     4 1   
     5     4     5 1   
     6     4     6 1   
     7     4    36 1   
     8     5    37 1   
     9     5    38 1   
    10     5    39 1   
    11     6    40 1   
    12     6    41 1   
    13     6    42 1   
    14     7     8 1   
    15     7    17 1   
    16     8     9 1   
    17     8    15 2   
    18     9    10 1   
    19     9    14 2   
    20    10    11 2   
    21    10    44 1   
    22    11    12 1   
    23    12    13 1   
    24    12    14 1   
    25    13    46 1   
    26    13    47 1   
    27    13    48 1   
    28    14    45 1   
    29    15    16 1   
    30    15    43 1   
    31    16    17 ar  
    32    16    21 ar  
    33    17    18 ar  
    34    18    19 ar  
    35    18    50 1   
    36    19    20 ar  
    37    19    22 1   
    38    20    21 ar  
    39    21    49 1   
    40    22    23 1   
    41    22    51 1   
    42    23    24 ar  
    43    23    28 ar  
    44    24    25 ar  
    45    24    52 1   
    46    25    26 ar  
    47    25    54 1   
    48    26    27 ar  
    49    26    29 1   
    50    27    28 ar  
    51    27    55 1   
    52    28    53 1   
    53    29    30 2   
    54    29    34 1   
    55    30    31 1   
    56    30    56 1   
    57    31    32 2   
    58    32    33 1   
    59    32    34 1   
    60    33    57 1   
    61    33    58 1   
    62    33    59 1   
    63    34    35 1   
    64    35    60 1   
    65    35    61 1   
    66    35    62 1   
@<TRIPOS>SUBSTRUCTURE
     1 PWU         1 TEMP              0 ****  ****    0 ROOT
