@<TRIPOS>MOLECULE
PWZ
   58    59     1     0     0
SMALL
bcc


@<TRIPOS>ATOM
      1 O1          1.2430   -2.0530   -0.0470 o         1 PWZ     -0.851300
      2 C1          1.6080   -0.8700    0.2140 c         1 PWZ      0.908600
      3 O2          1.6560   -0.3890    1.3830 o         1 PWZ     -0.851300
      4 C2          2.0430    0.0390   -0.9500 c3        1 PWZ     -0.196400
      5 C3          1.1170   -0.1040   -2.1320 c3        1 PWZ     -0.064400
      6 C4          1.6710    0.5810   -3.3680 c3        1 PWZ     -0.060200
      7 C5          0.7810    0.4130   -4.5410 c2        1 PWZ     -0.123200
      8 C6          0.6410    1.3240   -5.5090 c2        1 PWZ     -0.229200
      9 C7         -0.2260    1.1170   -6.6950 c3        1 PWZ     -0.029200
     10 C8         -0.8440    2.4070   -7.1890 c3        1 PWZ     -0.085700
     11 C9          0.1640    3.2970   -7.9660 c3        1 PWZ      0.131100
     12 C10         0.0100    2.7790   -9.4220 c3        1 PWZ     -0.117400
     13 O5         -0.4230    4.6200   -8.0440 os        1 PWZ     -0.425600
     14 C21        -1.5310    4.5140   -8.9700 c3        1 PWZ      0.119400
     15 C11        -1.5220    3.0400   -9.4360 c3        1 PWZ     -0.097700
     16 C12        -1.9650    2.1530   -8.2420 c3        1 PWZ     -0.039500
     17 C13        -3.3190    2.4680   -7.7310 c2        1 PWZ     -0.139200
     18 C14        -4.3790    1.6810   -7.9310 c2        1 PWZ     -0.219200
     19 C15        -5.7520    1.9540   -7.4060 c3        1 PWZ      0.175300
     20 O3         -5.8080    3.0820   -6.5400 oh        1 PWZ     -0.602800
     21 C16        -6.7210    2.2370   -8.5550 c3        1 PWZ     -0.069400
     22 C17        -8.1580    2.1670   -8.0880 c3        1 PWZ     -0.080400
     23 C18        -9.1160    2.5040   -9.2110 c3        1 PWZ     -0.078400
     24 C19       -10.5550    2.4220   -8.7490 c3        1 PWZ     -0.080400
     25 C20       -11.5140    2.7610   -9.8610 c3        1 PWZ     -0.092100
     26 H2          2.0730    1.1010   -0.6010 hc        1 PWZ      0.019700
     27 H3          3.0840   -0.2570   -1.2400 hc        1 PWZ      0.019700
     28 H4          0.1170    0.3330   -1.8800 hc        1 PWZ      0.047200
     29 H5          0.9600   -1.1980   -2.3340 hc        1 PWZ      0.047200
     30 H6          2.6740    0.1360   -3.6170 hc        1 PWZ      0.039700
     31 H7          1.8410    1.6690   -3.1520 hc        1 PWZ      0.039700
     32 H8          0.2280   -0.5420   -4.5740 ha        1 PWZ      0.120000
     33 H9          1.1810    2.2840   -5.4730 ha        1 PWZ      0.117000
     34 H10        -1.0470    0.3900   -6.4490 hc        1 PWZ      0.040200
     35 H11         0.3840    0.6550   -7.5200 hc        1 PWZ      0.040200
     36 H12        -1.2500    2.9890   -6.3210 hc        1 PWZ      0.078700
     37 H13         1.1760    3.3960   -7.5320 h1        1 PWZ      0.100700
     38 H14         0.2780    1.7080   -9.5390 hc        1 PWZ      0.059700
     39 H15         0.5630    3.3980  -10.1600 hc        1 PWZ      0.059700
     40 H16        -1.3280    5.2200   -9.8130 h1        1 PWZ      0.046700
     41 H17        -2.4600    4.8080   -8.4290 h1        1 PWZ      0.046700
     42 H18        -2.0570    2.8480  -10.3810 hc        1 PWZ      0.074700
     43 H19        -1.9260    1.0800   -8.5760 hc        1 PWZ      0.055700
     44 H20        -3.4080    3.4030   -7.1490 ha        1 PWZ      0.135000
     45 H21        -4.3020    0.7460   -8.5100 ha        1 PWZ      0.124000
     46 H22        -6.1000    1.0420   -6.8340 h1        1 PWZ      0.039700
     47 H23        -5.1910    2.9090   -5.8180 ho        1 PWZ      0.407000
     48 H24        -6.5420    1.4860   -9.3670 hc        1 PWZ      0.049200
     49 H25        -6.5050    3.2560   -8.9690 hc        1 PWZ      0.049200
     50 H26        -8.3810    1.1390   -7.7000 hc        1 PWZ      0.047700
     51 H27        -8.3010    2.8830   -7.2360 hc        1 PWZ      0.047700
     52 H28        -8.9010    3.5390   -9.5890 hc        1 PWZ      0.037200
     53 H29        -8.9560    1.7990  -10.0680 hc        1 PWZ      0.037200
     54 H30       -10.7680    1.3870   -8.3700 hc        1 PWZ      0.039700
     55 H31       -10.7110    3.1260   -7.8890 hc        1 PWZ      0.039700
     56 H32       -11.3890    2.0560  -10.7180 hc        1 PWZ      0.030367
     57 H33       -11.3340    3.7990  -10.2330 hc        1 PWZ      0.030367
     58 H34       -12.5680    2.6940   -9.4990 hc        1 PWZ      0.030367
@<TRIPOS>BOND
     1    1    2 1   
     2    2    3 1   
     3    2    4 1   
     4    4    5 1   
     5    4   26 1   
     6    4   27 1   
     7    5    6 1   
     8    5   28 1   
     9    5   29 1   
    10    6    7 1   
    11    6   30 1   
    12    6   31 1   
    13    7    8 2   
    14    7   32 1   
    15    8    9 1   
    16    8   33 1   
    17    9   10 1   
    18    9   34 1   
    19    9   35 1   
    20   10   11 1   
    21   10   16 1   
    22   10   36 1   
    23   11   12 1   
    24   11   13 1   
    25   11   37 1   
    26   12   15 1   
    27   12   38 1   
    28   12   39 1   
    29   13   14 1   
    30   14   15 1   
    31   14   40 1   
    32   14   41 1   
    33   15   16 1   
    34   15   42 1   
    35   16   17 1   
    36   16   43 1   
    37   17   18 2   
    38   17   44 1   
    39   18   19 1   
    40   18   45 1   
    41   19   20 1   
    42   19   21 1   
    43   19   46 1   
    44   20   47 1   
    45   21   22 1   
    46   21   48 1   
    47   21   49 1   
    48   22   23 1   
    49   22   50 1   
    50   22   51 1   
    51   23   24 1   
    52   23   52 1   
    53   23   53 1   
    54   24   25 1   
    55   24   54 1   
    56   24   55 1   
    57   25   56 1   
    58   25   57 1   
    59   25   58 1   
@<TRIPOS>SUBSTRUCTURE
     1 PWZ         1 TEMP              0 ****  ****    0 ROOT
