@<TRIPOS>MOLECULE
molecule
   36    38     1     0     0
SMALL
bcc


@<TRIPOS>ATOM
      1 C1           0.0000     0.0000     0.0000 cc         1 PX1      -0.341400
      2 C           -0.7410     0.6750    -0.9220 c2         1 PX1       0.134100
      3 O           -0.1280     1.3840    -1.8890 oh         1 PX1      -0.451100
      4 C2           1.4920     0.0000     0.0000 cc         1 PX1       0.432600
      5 N2           2.1870    -0.0000    -1.1060 n2         1 PX1      -0.712100
      6 C3           2.1410     0.0000     1.3450 c          1 PX1       0.460000
      7 O3           3.2890     0.3900     1.4710 o          1 PX1      -0.522100
      8 C4           1.4230    -0.4470     2.4610 cd         1 PX1      -0.222400
      9 O5          -0.5500    -1.3190     3.4570 os         1 PX1      -0.356800
     10 C6          -2.0380    -2.9950     4.2300 ca         1 PX1      -0.141600
     11 C7          -3.1290    -3.8280     4.0190 ca         1 PX1       0.180600
     12 C8          -3.7910    -3.8320     2.7940 ca         1 PX1      -0.095000
     13 C9          -3.3560    -2.9950     1.7750 ca         1 PX1      -0.208900
     14 C'          -4.0530    -2.9770     0.4850 c          1 PX1       0.587500
     15 O'          -5.0150    -3.6950     0.3050 o          1 PX1      -0.531100
     16 N10         -1.7420    -1.4360     0.9480 nd         1 PX1      -0.668000
     17 C11         -0.6060    -0.7940     1.0940 cc         1 PX1       0.434800
     18 C12          0.1190    -0.8710     2.3710 cc         1 PX1       0.200400
     19 C13         -1.5870    -2.1590     3.2190 ca         1 PX1       0.224700
     20 C14         -2.2160    -2.1730     1.9690 ca         1 PX1       0.295300
     21 C15          2.1040    -0.4660     3.8060 c3         1 PX1      -0.039900
     22 C16         -1.3400    -2.9990     5.5650 c3         1 PX1      -0.044800
     23 N7          -3.5640    -4.6690     5.0410 nv         1 PX1      -0.984200
     24 H           -1.8230     0.6420    -0.8770 h4         1 PX1       0.144000
     25 HA          -0.7720     1.8620    -2.3840 ho         1 PX1       0.425000
     26 H2           3.1880    -0.0010    -1.0680 hn         1 PX1       0.416400
     27 H8          -4.6410    -4.4840     2.6370 ha         1 PX1       0.168000
     28 H9          -3.7060    -2.3290    -0.3100 h4         1 PX1       0.024200
     29 H151         1.4610     0.0010     4.5430 hc         1 PX1       0.053367
     30 H152         2.3010    -1.4900     4.0970 hc         1 PX1       0.053367
     31 H153         3.0380     0.0790     3.7450 hc         1 PX1       0.053367
     32 H161        -2.0020    -3.4110     6.3170 hc         1 PX1       0.053700
     33 H162        -0.4440    -3.6050     5.5030 hc         1 PX1       0.053700
     34 H163        -1.0720    -1.9850     5.8360 hc         1 PX1       0.053700
     35 H7N1        -3.1840    -5.5910     5.1260 hn         1 PX1       0.435300
     36 H7N2        -4.2890    -4.3670     5.6620 hn         1 PX1       0.435300
@<TRIPOS>BOND
     1     1     2 2
     2     1     4 1
     3     1    17 1
     4     2     3 1
     5     2    24 1
     6     3    25 1
     7     4     5 2
     8     4     6 1
     9     5    26 1
    10     6     7 2
    11     6     8 1
    12     8    18 2
    13     8    21 1
    14     9    18 1
    15     9    19 1
    16    10    11 ar
    17    10    19 ar
    18    10    22 1
    19    11    12 ar
    20    11    23 1
    21    12    13 ar
    22    12    27 1
    23    13    14 1
    24    13    20 ar
    25    14    15 2
    26    14    28 1
    27    16    17 2
    28    16    20 1
    29    17    18 1
    30    19    20 ar
    31    21    29 1
    32    21    30 1
    33    21    31 1
    34    22    32 1
    35    22    33 1
    36    22    34 1
    37    23    35 1
    38    23    36 1
@<TRIPOS>SUBSTRUCTURE
     1 PX1         1 TEMP              0 ****  ****    0 ROOT
