@<TRIPOS>MOLECULE
PX2
   87    86     1     0     0
SMALL
bcc


@<TRIPOS>ATOM
      1 O1          2.1750   -1.4920    1.2480 o         1 PX2     -0.915167
      2 O2          3.7480    0.5040    1.1600 o         1 PX2     -0.915167
      3 P1          3.5260   -0.9510    0.8780 p5        1 PX2      1.323900
      4 O3          4.7040   -1.8720    1.1060 o         1 PX2     -0.915167
      5 O4          3.5000   -0.9970   -0.8680 os        1 PX2     -0.564200
      6 C1          2.3060   -0.6780   -1.4390 c3        1 PX2      0.234400
      7 C2          1.9450   -1.5970   -2.6380 c3        1 PX2      0.091100
      8 C3          3.1080   -1.8990   -3.5810 c3        1 PX2      0.144400
      9 O5          3.9370   -2.9200   -3.0340 os        1 PX2     -0.457900
     10 C4          5.2170   -2.5520   -2.6540 c         1 PX2      0.697100
     11 O6          5.8150   -1.7870   -3.4220 o         1 PX2     -0.613000
     12 C5          5.6480   -3.1850   -1.3900 c3        1 PX2     -0.218400
     13 C6          7.1370   -3.1240   -1.1580 c3        1 PX2     -0.037400
     14 C7          7.4270   -3.3110    0.3180 c3        1 PX2     -0.114400
     15 C8          8.8690   -2.9910    0.6450 c3        1 PX2     -0.064400
     16 C9          9.1340   -3.1500    2.1270 c3        1 PX2     -0.082400
     17 C10        10.5620   -2.7900    2.4780 c3        1 PX2     -0.076400
     18 C11        10.8220   -2.9460    3.9610 c3        1 PX2     -0.080400
     19 C12        12.2470   -2.5810    4.3160 c3        1 PX2     -0.078400
     20 C13        12.5050   -2.7370    5.7990 c3        1 PX2     -0.079400
     21 C14        13.9290   -2.3710    6.1560 c3        1 PX2     -0.080400
     22 C15        14.1890   -2.5250    7.6320 c3        1 PX2     -0.090100
     23 O7          1.4350   -2.8140   -2.0630 os        1 PX2     -0.348900
     24 C16         0.6160   -3.5940   -2.7950 c         1 PX2      0.630100
     25 O8          0.2530   -3.2610   -3.9340 o         1 PX2     -0.623000
     26 C17         0.2340   -4.8450   -2.0540 c3        1 PX2     -0.139400
     27 C18        -1.1760   -5.2760   -2.3920 c3        1 PX2     -0.074400
     28 C19        -1.5070   -6.6010   -1.7400 c3        1 PX2     -0.079400
     29 C20        -2.9250   -7.0270   -2.0540 c3        1 PX2     -0.077400
     30 C21        -3.2580   -8.3540   -1.4050 c3        1 PX2     -0.079400
     31 C22        -4.6770   -8.7800   -1.7160 c3        1 PX2     -0.078400
     32 C23        -5.0090  -10.1060   -1.0670 c3        1 PX2     -0.079400
     33 C24        -6.4280  -10.5320   -1.3770 c3        1 PX2     -0.078400
     34 C25        -6.7600  -11.8570   -0.7270 c3        1 PX2     -0.079400
     35 C26        -8.1790  -12.2840   -1.0360 c3        1 PX2     -0.080400
     36 C27        -8.5140  -13.6040   -0.3900 c3        1 PX2     -0.091100
     37 H2          2.3410    0.3560   -1.9050 h1        1 PX2      0.012700
     38 H3          1.4670   -0.7350   -0.6860 h1        1 PX2      0.012700
     39 H4          1.1250   -1.1150   -3.2420 h1        1 PX2      0.023700
     40 H5          3.6870   -0.9570   -3.7640 h1        1 PX2      0.042700
     41 H6          2.7210   -2.3210   -4.5480 h1        1 PX2      0.042700
     42 H7          5.2590   -4.2300   -1.3220 hc        1 PX2      0.152700
     43 H8          5.1000   -2.5790   -0.5410 hc        1 PX2      0.152700
     44 H9          7.6690   -3.9070   -1.7620 hc        1 PX2      0.013200
     45 H10         7.5220   -2.1260   -1.4960 hc        1 PX2      0.013200
     46 H11         6.7220   -2.6430    0.9070 hc        1 PX2      0.090200
     47 H12         7.2000   -4.3680    0.6140 hc        1 PX2      0.090200
     48 H13         9.0950   -1.9370    0.3370 hc        1 PX2      0.016700
     49 H14         9.5580   -3.6610    0.0650 hc        1 PX2      0.016700
     50 H15         8.4240   -2.4940    2.6980 hc        1 PX2      0.048200
     51 H16         8.9270   -4.2080    2.4360 hc        1 PX2      0.048200
     52 H17        10.7660   -1.7300    2.1720 hc        1 PX2      0.029200
     53 H18        11.2700   -3.4420    1.9020 hc        1 PX2      0.029200
     54 H19        10.1110   -2.2940    4.5350 hc        1 PX2      0.040700
     55 H20        10.6170   -4.0060    4.2690 hc        1 PX2      0.040700
     56 H21        12.9570   -3.2320    3.7400 hc        1 PX2      0.033700
     57 H22        12.4490   -1.5210    4.0090 hc        1 PX2      0.033700
     58 H23        12.3020   -3.7970    6.1060 hc        1 PX2      0.039200
     59 H24        11.7940   -2.0860    6.3730 hc        1 PX2      0.039200
     60 H25        14.6380   -3.0210    5.5790 hc        1 PX2      0.034700
     61 H26        14.1300   -1.3110    5.8470 hc        1 PX2      0.034700
     62 H27        14.0180   -3.5800    7.9540 hc        1 PX2      0.027033
     63 H28        13.5080   -1.8650    8.2220 hc        1 PX2      0.027033
     64 H29        15.2440   -2.2490    7.8740 hc        1 PX2      0.027033
     65 H30         0.3440   -4.6620   -0.9510 hc        1 PX2      0.084200
     66 H31         0.9700   -5.6410   -2.3430 hc        1 PX2      0.084200
     67 H32        -1.8990   -4.4920   -2.0450 hc        1 PX2      0.047200
     68 H33        -1.2860   -5.3560   -3.5060 hc        1 PX2      0.047200
     69 H34        -0.7900   -7.3860   -2.0960 hc        1 PX2      0.040700
     70 H35        -1.3770   -6.5140   -0.6280 hc        1 PX2      0.040700
     71 H36        -3.0560   -7.1080   -3.1650 hc        1 PX2      0.036700
     72 H37        -3.6410   -6.2420   -1.6940 hc        1 PX2      0.036700
     73 H38        -3.1250   -8.2710   -0.2940 hc        1 PX2      0.039200
     74 H39        -2.5420   -9.1380   -1.7650 hc        1 PX2      0.039200
     75 H40        -5.3920   -7.9940   -1.3550 hc        1 PX2      0.036700
     76 H41        -4.8090   -8.8610   -2.8270 hc        1 PX2      0.036700
     77 H42        -4.8750  -10.0230    0.0440 hc        1 PX2      0.039200
     78 H43        -4.2930  -10.8910   -1.4270 hc        1 PX2      0.039200
     79 H44        -6.5610  -10.6140   -2.4880 hc        1 PX2      0.037700
     80 H45        -7.1430   -9.7460   -1.0170 hc        1 PX2      0.037700
     81 H46        -6.0440  -12.6430   -1.0870 hc        1 PX2      0.038700
     82 H47        -6.6270  -11.7740    0.3840 hc        1 PX2      0.038700
     83 H48        -8.3100  -12.3650   -2.1480 hc        1 PX2      0.037200
     84 H49        -8.8920  -11.4960   -0.6770 hc        1 PX2      0.037200
     85 H50        -8.4120  -13.5350    0.7200 hc        1 PX2      0.029367
     86 H51        -7.8290  -14.4060   -0.7540 hc        1 PX2      0.029367
     87 H52        -9.5640  -13.9000   -0.6300 hc        1 PX2      0.029367
@<TRIPOS>BOND
     1    1    3 1   
     2    2    3 1   
     3    3    4 1   
     4    3    5 1   
     5    5    6 1   
     6    6    7 1   
     7    6   37 1   
     8    6   38 1   
     9    7    8 1   
    10    7   23 1   
    11    7   39 1   
    12    8    9 1   
    13    8   40 1   
    14    8   41 1   
    15    9   10 1   
    16   10   11 2   
    17   10   12 1   
    18   12   13 1   
    19   12   42 1   
    20   12   43 1   
    21   13   14 1   
    22   13   44 1   
    23   13   45 1   
    24   14   15 1   
    25   14   46 1   
    26   14   47 1   
    27   15   16 1   
    28   15   48 1   
    29   15   49 1   
    30   16   17 1   
    31   16   50 1   
    32   16   51 1   
    33   17   18 1   
    34   17   52 1   
    35   17   53 1   
    36   18   19 1   
    37   18   54 1   
    38   18   55 1   
    39   19   20 1   
    40   19   56 1   
    41   19   57 1   
    42   20   21 1   
    43   20   58 1   
    44   20   59 1   
    45   21   22 1   
    46   21   60 1   
    47   21   61 1   
    48   22   62 1   
    49   22   63 1   
    50   22   64 1   
    51   23   24 1   
    52   24   25 2   
    53   24   26 1   
    54   26   27 1   
    55   26   65 1   
    56   26   66 1   
    57   27   28 1   
    58   27   67 1   
    59   27   68 1   
    60   28   29 1   
    61   28   69 1   
    62   28   70 1   
    63   29   30 1   
    64   29   71 1   
    65   29   72 1   
    66   30   31 1   
    67   30   73 1   
    68   30   74 1   
    69   31   32 1   
    70   31   75 1   
    71   31   76 1   
    72   32   33 1   
    73   32   77 1   
    74   32   78 1   
    75   33   34 1   
    76   33   79 1   
    77   33   80 1   
    78   34   35 1   
    79   34   81 1   
    80   34   82 1   
    81   35   36 1   
    82   35   83 1   
    83   35   84 1   
    84   36   85 1   
    85   36   86 1   
    86   36   87 1   
@<TRIPOS>SUBSTRUCTURE
     1 PX2         1 TEMP              0 ****  ****    0 ROOT
