@<TRIPOS>MOLECULE
molecule
   87    86     1     0     0
SMALL
bcc


@<TRIPOS>ATOM
      1 O1           0.0000     0.0000     0.0000 o          1 PX2      -0.909167
      2 O2           2.0600     1.2620    -0.7280 o          1 PX2      -0.909167
      3 P1           1.5450     0.0000     0.0000 p5         1 PX2       1.144900
      4 O3           2.0820     0.0000     1.5180 o          1 PX2      -0.909167
      5 O4           2.0810    -1.3150    -0.7580 os         1 PX2      -0.522200
      6 C1           1.4790    -1.3190    -2.0540 c3         1 PX2       0.143400
      7 C2           1.9510    -2.5500    -2.8320 c3         1 PX2       0.144100
      8 C3           3.4800    -2.5750    -2.8690 c3         1 PX2       0.172400
      9 O5           3.9980    -2.5120    -1.5140 os         1 PX2      -0.328900
     10 C4           5.3230    -2.5220    -1.3020 c          1 PX2       0.646100
     11 O6           6.0860    -2.5820    -2.2380 o          1 PX2      -0.629000
     12 C5           5.8620    -2.4570     0.1040 c3         1 PX2      -0.125400
     13 C6           7.3910    -2.4820     0.0660 c3         1 PX2      -0.071400
     14 C7           7.9380    -2.4170     1.4950 c3         1 PX2      -0.084400
     15 C8           9.4670    -2.4420     1.4580 c3         1 PX2      -0.080400
     16 C9          10.0130    -2.3760     2.8850 c3         1 PX2      -0.082400
     17 C10         11.5420    -2.4020     2.8470 c3         1 PX2      -0.082400
     18 C11         12.0890    -2.3360     4.2750 c3         1 PX2      -0.082400
     19 C12         13.6170    -2.3620     4.2380 c3         1 PX2      -0.082400
     20 C13         14.1640    -2.2960     5.6660 c3         1 PX2      -0.082400
     21 C14         15.6930    -2.3210     5.6280 c3         1 PX2      -0.084400
     22 C15         16.2400    -2.2560     7.0560 c3         1 PX2      -0.092100
     23 O7           1.4630    -3.7510    -2.1780 os         1 PX2      -0.405900
     24 C16          0.2720    -4.2660    -2.5240 c          1 PX2       0.645100
     25 O8          -0.3930    -3.7300    -3.3790 o          1 PX2      -0.581000
     26 C17         -0.2340    -5.5130    -1.8460 c3         1 PX2      -0.127400
     27 C18         -1.6020    -5.8860    -2.4190 c3         1 PX2      -0.071400
     28 C19         -2.1170    -7.1510    -1.7300 c3         1 PX2      -0.084400
     29 C20         -3.4850    -7.5240    -2.3040 c3         1 PX2      -0.080400
     30 C21         -4.0000    -8.7900    -1.6160 c3         1 PX2      -0.082400
     31 C22         -5.3680    -9.1630    -2.1900 c3         1 PX2      -0.082400
     32 C23         -5.8820   -10.4290    -1.5010 c3         1 PX2      -0.082400
     33 C24         -7.2510   -10.8010    -2.0750 c3         1 PX2      -0.082400
     34 C25         -7.7650   -12.0670    -1.3870 c3         1 PX2      -0.082400
     35 C26         -9.1330   -12.4390    -1.9610 c3         1 PX2      -0.084400
     36 C27         -9.6480   -13.7040    -1.2720 c3         1 PX2      -0.092100
     37 H2           1.7670    -0.4220    -2.5890 h1         1 PX2       0.057200
     38 H3           0.4010    -1.3480    -1.9510 h1         1 PX2       0.057200
     39 H4           1.5660    -2.5070    -3.8430 h1         1 PX2       0.044700
     40 H5           3.8150    -3.4910    -3.3420 h1         1 PX2       0.032200
     41 H6           3.8420    -1.7240    -3.4340 h1         1 PX2       0.032200
     42 H7           5.5280    -1.5410     0.5770 hc         1 PX2       0.092700
     43 H8           5.5010    -3.3080     0.6690 hc         1 PX2       0.092700
     44 H9           7.7260    -3.3980    -0.4060 hc         1 PX2       0.044700
     45 H10          7.7530    -1.6310    -0.4980 hc         1 PX2       0.044700
     46 H11          7.6030    -1.5010     1.9680 hc         1 PX2       0.046700
     47 H12          7.5760    -3.2680     2.0590 hc         1 PX2       0.046700
     48 H13          9.8280    -1.5910     0.8930 hc         1 PX2       0.036200
     49 H14          9.8010    -3.3580     0.9850 hc         1 PX2       0.036200
     50 H15          9.6790    -1.4610     3.3580 hc         1 PX2       0.042700
     51 H16          9.6520    -3.2270     3.4500 hc         1 PX2       0.042700
     52 H17         11.9040    -1.5500     2.2830 hc         1 PX2       0.037200
     53 H18         11.8770    -3.3170     2.3740 hc         1 PX2       0.037200
     54 H19         11.7270    -3.1880     4.8390 hc         1 PX2       0.041200
     55 H20         11.7540    -1.4210     4.7480 hc         1 PX2       0.041200
     56 H21         13.9790    -1.5110     3.6740 hc         1 PX2       0.038200
     57 H22         13.9520    -3.2770     3.7660 hc         1 PX2       0.038200
     58 H23         13.8020    -3.1460     6.2300 hc         1 PX2       0.041200
     59 H24         13.8290    -1.3800     6.1380 hc         1 PX2       0.041200
     60 H25         16.0540    -1.4700     5.0640 hc         1 PX2       0.037700
     61 H26         16.0270    -3.2360     5.1550 hc         1 PX2       0.037700
     62 H27         15.9050    -1.3410     7.5290 hc         1 PX2       0.029367
     63 H28         17.3220    -2.2740     7.0290 hc         1 PX2       0.029367
     64 H29         15.8780    -3.1070     7.6200 hc         1 PX2       0.029367
     65 H30          0.4630    -6.3250    -2.0170 hc         1 PX2       0.066700
     66 H31         -0.3250    -5.3330    -0.7810 hc         1 PX2       0.066700
     67 H32         -1.5110    -6.0660    -3.4840 hc         1 PX2       0.056700
     68 H33         -2.2990    -5.0740    -2.2490 hc         1 PX2       0.056700
     69 H34         -1.4200    -7.9640    -1.9010 hc         1 PX2       0.037200
     70 H35         -2.2080    -6.9720    -0.6660 hc         1 PX2       0.037200
     71 H36         -4.1810    -6.7110    -2.1330 hc         1 PX2       0.042200
     72 H37         -3.3940    -7.7030    -3.3690 hc         1 PX2       0.042200
     73 H38         -4.0910    -8.6110    -0.5520 hc         1 PX2       0.038700
     74 H39         -3.3030    -9.6020    -1.7870 hc         1 PX2       0.038700
     75 H40         -6.0650    -8.3510    -2.0200 hc         1 PX2       0.040700
     76 H41         -5.2770    -9.3430    -3.2540 hc         1 PX2       0.040700
     77 H42         -5.1860   -11.2410    -1.6710 hc         1 PX2       0.039700
     78 H43         -5.9740   -10.2490    -0.4370 hc         1 PX2       0.039700
     79 H44         -7.9470    -9.9890    -1.9040 hc         1 PX2       0.040200
     80 H45         -7.1600   -10.9800    -3.1390 hc         1 PX2       0.040200
     81 H46         -7.0690   -12.8790    -1.5580 hc         1 PX2       0.040200
     82 H47         -7.8560   -11.8870    -0.3220 hc         1 PX2       0.040200
     83 H48         -9.8300   -11.6270    -1.7900 hc         1 PX2       0.039200
     84 H49         -9.0420   -12.6190    -3.0250 hc         1 PX2       0.039200
     85 H50         -9.7390   -13.5240    -0.2070 hc         1 PX2       0.029700
     86 H51        -10.6170   -13.9690    -1.6780 hc         1 PX2       0.029700
     87 H52         -8.9510   -14.5170    -1.4420 hc         1 PX2       0.029700
@<TRIPOS>BOND
     1     1     3 1
     2     2     3 1
     3     3     4 1
     4     3     5 1
     5     5     6 1
     6     6     7 1
     7     6    37 1
     8     6    38 1
     9     7     8 1
    10     7    23 1
    11     7    39 1
    12     8     9 1
    13     8    40 1
    14     8    41 1
    15     9    10 1
    16    10    11 2
    17    10    12 1
    18    12    13 1
    19    12    42 1
    20    12    43 1
    21    13    14 1
    22    13    44 1
    23    13    45 1
    24    14    15 1
    25    14    46 1
    26    14    47 1
    27    15    16 1
    28    15    48 1
    29    15    49 1
    30    16    17 1
    31    16    50 1
    32    16    51 1
    33    17    18 1
    34    17    52 1
    35    17    53 1
    36    18    19 1
    37    18    54 1
    38    18    55 1
    39    19    20 1
    40    19    56 1
    41    19    57 1
    42    20    21 1
    43    20    58 1
    44    20    59 1
    45    21    22 1
    46    21    60 1
    47    21    61 1
    48    22    62 1
    49    22    63 1
    50    22    64 1
    51    23    24 1
    52    24    25 2
    53    24    26 1
    54    26    27 1
    55    26    65 1
    56    26    66 1
    57    27    28 1
    58    27    67 1
    59    27    68 1
    60    28    29 1
    61    28    69 1
    62    28    70 1
    63    29    30 1
    64    29    71 1
    65    29    72 1
    66    30    31 1
    67    30    73 1
    68    30    74 1
    69    31    32 1
    70    31    75 1
    71    31    76 1
    72    32    33 1
    73    32    77 1
    74    32    78 1
    75    33    34 1
    76    33    79 1
    77    33    80 1
    78    34    35 1
    79    34    81 1
    80    34    82 1
    81    35    36 1
    82    35    83 1
    83    35    84 1
    84    36    85 1
    85    36    86 1
    86    36    87 1
@<TRIPOS>SUBSTRUCTURE
     1 PX2         1 TEMP              0 ****  ****    0 ROOT
