@<TRIPOS>MOLECULE
PX3
   63    66     1     0     0
SMALL
bcc


@<TRIPOS>ATOM
      1 C1           0.0000     0.0000     0.0000 ca         1 PX3      -0.126000
      2 C2           1.3840     0.0000     0.0000 ca         1 PX3      -0.097000
      3 C3          -0.6930     0.0020     1.1920 ca         1 PX3      -0.090000
      4 C4           2.0810     0.0000     1.1950 ca         1 PX3      -0.121000
      5 C5           1.7130     0.4120     7.0480 ca         1 PX3      -0.116000
      6 C6          -4.9720    -1.1900     4.5610 ca         1 PX3      -0.043000
      7 C7          -4.9690     1.2060     4.5600 ca         1 PX3      -0.043000
      8 C8           0.7380     0.8740     7.9160 ca         1 PX3      -0.124000
      9 C9          -6.3300    -1.1910     4.3120 ca         1 PX3      -0.185500
     10 C10         -6.3280     1.2100     4.3100 ca         1 PX3      -0.185500
     11 C11          0.0050     0.0020     2.4020 ca         1 PX3      -0.105600
     12 C12          0.6100    -1.7200     6.9360 ca         1 PX3      -0.013600
     13 C13         -4.2910     0.0080     4.6850 ca         1 PX3      -0.149300
     14 C14          1.4000     0.0010     2.3950 ca         1 PX3      -0.003300
     15 C24         -2.8100     0.0060     4.9570 c3         1 PX3       0.103300
     16 C15          1.6570    -0.8730     6.5580 ca         1 PX3      -0.048300
     17 C16         -0.3050     0.0490     8.3010 ca         1 PX3       0.020100
     18 C17         -0.3760    -1.2540     7.8130 ca         1 PX3       0.070100
     19 C18         -7.0120     0.0100     4.1850 ca         1 PX3       0.140100
     20 C20          2.6870    -3.6880     3.7280 c2         1 PX3      -0.113200
     21 C21         -0.7320     0.0040     3.6840 c          1 PX3       0.592700
     22 C23         -2.3090    -0.7840     8.8220 c3         1 PX3       0.417200
     23 C26          2.1610     0.0000     3.6950 c3         1 PX3       0.162100
     24 C27          2.7220    -1.3680     5.6130 c3         1 PX3       0.202100
     25 C28          2.9850    -2.2530     3.3750 c3         1 PX3       0.170000
     26 N32         -2.0790     0.0050     3.6870 ns         1 PX3      -0.203900
     27 N33          2.2000    -1.3630     4.2400 n3         1 PX3      -0.458600
     28 O34         -0.1940    -3.3690     5.3210 o          1 PX3      -0.885800
     29 O35         -0.1220     0.0040     4.7350 o          1 PX3      -0.591100
     30 O36          1.1590    -3.9870     6.9690 o          1 PX3      -0.885800
     31 O37         -1.3700     0.2630     9.1290 os         1 PX3      -0.338900
     32 O38         -1.4800    -1.8560     8.3340 os         1 PX3      -0.291900
     33 O39         -8.3490     0.0100     3.9390 os         1 PX3      -0.311900
     34 H1          -0.5400    -0.0000    -0.9390 ha         1 PX3       0.093000
     35 H2           1.9240    -0.0010    -0.9390 ha         1 PX3       0.091000
     36 H3          -1.7760     0.0020     1.1910 ha         1 PX3       0.099000
     37 H4           3.1640    -0.0000     1.1890 ha         1 PX3       0.103000
     38 H5           2.5250     1.0660     6.7530 ha         1 PX3       0.087000
     39 H8           0.7910     1.8880     8.2960 ha         1 PX3       0.087000
     40 H6          -4.4390    -2.1280     4.6600 ha         1 PX3       0.117500
     41 H9          -6.8630    -2.1300     4.2140 ha         1 PX3       0.114500
     42 H7          -4.4340     2.1430     4.6570 ha         1 PX3       0.117500
     43 H10         -6.8590     2.1490     4.2110 ha         1 PX3       0.114500
     44 H241        -2.5460     0.8910     5.5240 h1         1 PX3       0.042700
     45 H242        -2.5480    -0.8780     5.5250 h1         1 PX3       0.042700
     46 H261         1.6690     0.6580     4.4020 h1         1 PX3       0.027700
     47 H262         3.1720     0.3490     3.5220 h1         1 PX3       0.027700
     48 H32         -2.5810     0.0110     2.8210 hn         1 PX3       0.169500
     49 H271         3.5870    -0.7190     5.6720 h1         1 PX3       0.014700
     50 H272         3.0080    -2.3760     5.8870 h1         1 PX3       0.014700
     51 H191         2.1480    -4.1740     1.7830 ha         1 PX3       0.073500
     52 H192         2.0610    -5.5500     3.0560 ha         1 PX3       0.073500
     53 H20          2.8140    -4.0330     4.7470 ha         1 PX3       0.136000
     54 H281         4.0410    -2.0580     3.5190 h1         1 PX3      -0.003300
     55 H282         2.7220    -2.0740     2.3400 h1         1 PX3      -0.003300
     56 H231        -2.8390    -1.0910     9.7150 h2         1 PX3      -0.004800
     57 H232        -3.0010    -0.4590     8.0530 h2         1 PX3      -0.004800
     58 H251        -8.8590     1.8380     4.7430 h1         1 PX3      -0.006300
     59 H252        -8.5390     1.8370     3.0030 h1         1 PX3      -0.006300
     60 H253       -10.0420     1.1430     3.6260 h1         1 PX3      -0.006300
     61 C19          2.2750    -4.5190     2.8020 c2         1 PX3      -0.184000
     62 C22          0.5450    -3.0970     6.4140 c          1 PX3       0.982200
     63 C25         -8.9860     1.2840     3.8200 c3         1 PX3       0.244700
@<TRIPOS>BOND
     1     1     2 ar  
     2     1     3 ar  
     3     1    34 1   
     4     2     4 ar  
     5     2    35 1   
     6     3    11 ar  
     7     3    36 1   
     8     4    14 ar  
     9     4    37 1   
    10     5     8 ar  
    11     5    16 ar  
    12     5    38 1   
    13     6     9 ar  
    14     6    13 ar  
    15     6    40 1   
    16     7    10 ar  
    17     7    13 ar  
    18     7    42 1   
    19     8    17 ar  
    20     8    39 1   
    21     9    19 ar  
    22     9    41 1   
    23    10    19 ar  
    24    10    43 1   
    25    11    14 ar  
    26    11    21 1   
    27    12    16 ar  
    28    12    18 ar  
    29    12    62 1   
    30    13    15 1   
    31    14    23 1   
    32    15    26 1   
    33    15    44 1   
    34    15    45 1   
    35    16    24 1   
    36    17    18 ar  
    37    17    31 1   
    38    18    32 1   
    39    19    33 1   
    40    20    25 1   
    41    20    53 1   
    42    20    61 2   
    43    21    26 1   
    44    21    29 2   
    45    22    31 1   
    46    22    32 1   
    47    22    56 1   
    48    22    57 1   
    49    23    27 1   
    50    23    46 1   
    51    23    47 1   
    52    24    27 1   
    53    24    49 1   
    54    24    50 1   
    55    25    27 1   
    56    25    54 1   
    57    25    55 1   
    58    26    48 1   
    59    28    62 1   
    60    30    62 1   
    61    33    63 1   
    62    51    61 1   
    63    52    61 1   
    64    58    63 1   
    65    59    63 1   
    66    60    63 1   
@<TRIPOS>SUBSTRUCTURE
     1 PX3         1 TEMP              0 ****  ****    0 ROOT
