@<TRIPOS>MOLECULE
molecule
   63    66     1     0     0
SMALL
bcc


@<TRIPOS>ATOM
      1 C1           0.0000     0.0000     0.0000 ca         1 PX3      -0.149000
      2 C2           1.3840     0.0000     0.0000 ca         1 PX3      -0.123000
      3 C3          -0.6930     0.0020     1.1920 ca         1 PX3      -0.110000
      4 C4           2.0810     0.0000     1.1950 ca         1 PX3      -0.143000
      5 C5           1.7130     0.4120     7.0480 ca         1 PX3      -0.132000
      6 C6          -4.9720    -1.1900     4.5610 ca         1 PX3      -0.076500
      7 C7          -4.9690     1.2060     4.5600 ca         1 PX3      -0.076500
      8 C8           0.7380     0.8740     7.9160 ca         1 PX3      -0.144000
      9 C9          -6.3300    -1.1910     4.3120 ca         1 PX3      -0.199000
     10 C10         -6.3280     1.2100     4.3100 ca         1 PX3      -0.199000
     11 C11          0.0050     0.0020     2.4020 ca         1 PX3      -0.100600
     12 C12          0.6100    -1.7200     6.9360 ca         1 PX3      -0.015600
     13 C13         -4.2910     0.0080     4.6850 ca         1 PX3      -0.141300
     14 C14          1.4000     0.0010     2.3950 ca         1 PX3      -0.008300
     15 C24         -2.8100     0.0060     4.9570 c3         1 PX3       0.161300
     16 C15          1.6570    -0.8730     6.5580 ca         1 PX3      -0.044300
     17 C16         -0.3050     0.0490     8.3010 ca         1 PX3       0.021100
     18 C17         -0.3760    -1.2540     7.8130 ca         1 PX3       0.056100
     19 C18         -7.0120     0.0100     4.1850 ca         1 PX3       0.131100
     20 C20          2.6870    -3.6880     3.7280 c2         1 PX3      -0.126200
     21 C21         -0.7320     0.0040     3.6840 c          1 PX3       0.672700
     22 C23         -2.3090    -0.7840     8.8220 c3         1 PX3       0.326200
     23 C26          2.1610     0.0000     3.6950 c3         1 PX3       0.197100
     24 C27          2.7220    -1.3680     5.6130 c3         1 PX3       0.223100
     25 C28          2.9850    -2.2530     3.3750 c3         1 PX3       0.189000
     26 N32         -2.0790     0.0050     3.6870 ns         1 PX3      -0.584900
     27 N33          2.2000    -1.3630     4.2400 n3         1 PX3      -0.664600
     28 O34         -0.1940    -3.3690     5.3210 o          1 PX3      -0.830800
     29 O35         -0.1220     0.0040     4.7350 o          1 PX3      -0.551100
     30 O36          1.1590    -3.9870     6.9690 o          1 PX3      -0.830800
     31 O37         -1.3700     0.2630     9.1290 os         1 PX3      -0.353900
     32 O38         -1.4800    -1.8560     8.3340 os         1 PX3      -0.305900
     33 O39         -8.3490     0.0100     3.9390 os         1 PX3      -0.333900
     34 H1          -0.5400    -0.0000    -0.9390 ha         1 PX3       0.118000
     35 H2           1.9240    -0.0010    -0.9390 ha         1 PX3       0.117000
     36 H3          -1.7760     0.0020     1.1910 ha         1 PX3       0.122000
     37 H4           3.1640    -0.0000     1.1890 ha         1 PX3       0.127000
     38 H5           2.5250     1.0660     6.7530 ha         1 PX3       0.109000
     39 H8           0.7910     1.8880     8.2960 ha         1 PX3       0.111000
     40 H6          -4.4390    -2.1280     4.6600 ha         1 PX3       0.148000
     41 H9          -6.8630    -2.1300     4.2140 ha         1 PX3       0.134000
     42 H7          -4.4340     2.1430     4.6570 ha         1 PX3       0.148000
     43 H10         -6.8590     2.1490     4.2110 ha         1 PX3       0.134000
     44 H241        -2.5480    -0.8780     5.5250 h1         1 PX3       0.070700
     45 H242        -2.5460     0.8910     5.5240 h1         1 PX3       0.070700
     46 H261         1.6690     0.6580     4.4020 h1         1 PX3       0.045700
     47 H262         3.1720     0.3490     3.5220 h1         1 PX3       0.045700
     48 H32         -2.5810     0.0110     2.8210 hn         1 PX3       0.303500
     49 H271         3.5870    -0.7190     5.6720 h1         1 PX3       0.038200
     50 H272         3.0080    -2.3760     5.8870 h1         1 PX3       0.038200
     51 H191         2.0610    -5.5500     3.0560 ha         1 PX3       0.098500
     52 H192         2.1480    -4.1740     1.7830 ha         1 PX3       0.098500
     53 H20          2.8140    -4.0330     4.7470 ha         1 PX3       0.155000
     54 H281         4.0410    -2.0580     3.5190 h1         1 PX3       0.018200
     55 H282         2.7220    -2.0740     2.3400 h1         1 PX3       0.018200
     56 H231        -3.0010    -0.4590     8.0530 h2         1 PX3       0.047700
     57 H232        -2.8390    -1.0910     9.7150 h2         1 PX3       0.047700
     58 H251        -8.5380     1.8370     3.0030 h1         1 PX3       0.036367
     59 H252       -10.0420     1.1430     3.6260 h1         1 PX3       0.036367
     60 H253        -8.8590     1.8380     4.7430 h1         1 PX3       0.036367
     61 C19          2.2750    -4.5190     2.8020 c2         1 PX3      -0.231000
     62 C22          0.5450    -3.0970     6.4140 c          1 PX3       0.891200
     63 C25         -8.9860     1.2840     3.8200 c3         1 PX3       0.130700
@<TRIPOS>BOND
     1     1     2 ar
     2     1     3 ar
     3     2     4 ar
     4     3    11 ar
     5     4    14 ar
     6     5     8 ar
     7     5    16 ar
     8     6     9 ar
     9     6    13 ar
    10     7    10 ar
    11     7    13 ar
    12     8    17 ar
    13     9    19 ar
    14    10    19 ar
    15    11    14 ar
    16    11    21 1
    17    12    16 ar
    18    12    18 ar
    19    12    62 1
    20    13    15 1
    21    14    23 1
    22    15    26 1
    23    16    24 1
    24    17    18 ar
    25    17    31 1
    26    18    32 1
    27    19    33 1
    28    61    20 2
    29    20    25 1
    30    21    26 1
    31    21    29 2
    32    62    28 1
    33    62    30 1
    34    22    31 1
    35    22    32 1
    36    63    33 1
    37    23    27 1
    38    24    27 1
    39    25    27 1
    40     1    34 1
    41     2    35 1
    42     3    36 1
    43     4    37 1
    44     5    38 1
    45     8    39 1
    46     6    40 1
    47     9    41 1
    48     7    42 1
    49    10    43 1
    50    15    44 1
    51    15    45 1
    52    23    46 1
    53    23    47 1
    54    26    48 1
    55    24    49 1
    56    24    50 1
    57    61    51 1
    58    61    52 1
    59    20    53 1
    60    25    54 1
    61    25    55 1
    62    22    56 1
    63    22    57 1
    64    63    58 1
    65    63    59 1
    66    63    60 1
@<TRIPOS>SUBSTRUCTURE
     1 PX3         1 TEMP              0 ****  ****    0 ROOT
