@<TRIPOS>MOLECULE
molecule
  118   117     1     0     0
SMALL
bcc


@<TRIPOS>ATOM
      1 O1           0.0000     0.0000     0.0000 o          1 PX4      -0.799500
      2 O2           2.1030    -1.2130    -0.6900 o          1 PX4      -0.799500
      3 P1           1.6100     0.0000     0.0000 p5         1 PX4       1.253800
      4 O3           2.1460     0.0000     1.5180 os         1 PX4      -0.559200
      5 C1           1.7390    -1.2400     2.1010 c3         1 PX4       0.132400
      6 C2           2.2200    -1.3040     3.5520 c3         1 PX4       0.100800
      7 N1           1.5170    -0.2880     4.3470 n4         1 PX4      -0.569800
      8 C3           0.0660    -0.4630     4.1900 c3         1 PX4       0.097100
      9 C4           1.8780    -0.4370     5.7620 c3         1 PX4       0.097100
     10 C5           1.9020     1.0510     3.8810 c3         1 PX4       0.097100
     11 O4           2.1470     1.3150    -0.7590 os         1 PX4      -0.522200
     12 C6           1.7390     1.1990    -2.1240 c3         1 PX4       0.137400
     13 C7           2.2210     2.4230    -2.9050 c3         1 PX4       0.157100
     14 C8           1.7140     3.6950    -2.2230 c3         1 PX4       0.167400
     15 O5           2.1290     3.6960    -0.8310 os         1 PX4      -0.384900
     16 C9           1.7950     4.7220    -0.0320 c          1 PX4       0.632100
     17 O6           1.1480     5.6440    -0.4710 o          1 PX4      -0.570000
     18 C10          2.2260     4.7240     1.4120 c3         1 PX4      -0.120400
     19 C11          1.7190     5.9960     2.0930 c3         1 PX4      -0.075400
     20 C12          2.1560     5.9970     3.5600 c3         1 PX4      -0.082400
     21 C13          1.6480     7.2700     4.2420 c3         1 PX4      -0.081400
     22 C14          2.0860     7.2720     5.7080 c3         1 PX4      -0.082400
     23 C15          1.5790     8.5440     6.3900 c3         1 PX4      -0.082400
     24 C16          2.0160     8.5450     7.8560 c3         1 PX4      -0.081400
     25 C17          1.5090     9.8180     8.5380 c3         1 PX4      -0.082400
     26 C18          1.9460     9.8190    10.0050 c3         1 PX4      -0.082400
     27 C19          1.4390    11.0910    10.6860 c3         1 PX4      -0.082400
     28 C20          1.8770    11.0930    12.1530 c3         1 PX4      -0.081400
     29 C21          1.3700    12.3650    12.8350 c3         1 PX4      -0.084400
     30 C22          1.8070    12.3660    14.3010 c3         1 PX4      -0.092100
     31 O7           3.6730     2.4370    -2.9370 os         1 PX4      -0.421900
     32 C23          4.3280     1.8220    -3.9350 c          1 PX4       0.636100
     33 O8           3.7090     1.2570    -4.8050 o          1 PX4      -0.557000
     34 C24          5.8350     1.8360    -3.9680 c3         1 PX4      -0.123400
     35 C25          6.3250     1.0700    -5.1990 c3         1 PX4      -0.073400
     36 C26          7.8540     1.0840    -5.2320 c3         1 PX4      -0.083400
     37 C27          8.3440     0.3190    -6.4620 c3         1 PX4      -0.080400
     38 C28          9.8740     0.3330    -6.4960 c3         1 PX4      -0.082400
     39 C29         10.3650    -0.4330    -7.7270 c3         1 PX4      -0.082400
     40 C30         11.8940    -0.4180    -7.7600 c3         1 PX4      -0.081400
     41 C31         12.3840    -1.1840    -8.9910 c3         1 PX4      -0.082400
     42 C32         13.9140    -1.1700    -9.0250 c3         1 PX4      -0.081400
     43 C33         14.4040    -1.9360   -10.2550 c3         1 PX4      -0.082400
     44 C34         15.9320    -1.9210   -10.2890 c3         1 PX4      -0.081400
     45 C35         16.4230    -2.6870   -11.5200 c3         1 PX4      -0.084400
     46 C36         17.9530    -2.6720   -11.5540 c3         1 PX4      -0.092100
     47 H1           2.1700    -2.0610     1.5410 h1         1 PX4       0.094200
     48 H2           0.6580    -1.3130     2.0750 h1         1 PX4       0.094200
     49 H3           2.0130    -2.2870     3.9570 hx         1 PX4       0.092200
     50 H4           3.2860    -1.1160     3.5870 hx         1 PX4       0.092200
     51 H5          -0.1700    -1.5200     4.1630 hx         1 PX4       0.095367
     52 H6          -0.2560     0.0030     3.2660 hx         1 PX4       0.095367
     53 H7          -0.4460     0.0000     5.0250 hx         1 PX4       0.095367
     54 H8           1.3530     0.3070     6.3490 hx         1 PX4       0.095367
     55 H9           1.6010    -1.4270     6.1030 hx         1 PX4       0.095367
     56 H10          2.9460    -0.3010     5.8780 hx         1 PX4       0.095367
     57 H11          2.9270     1.0310     3.5330 hx         1 PX4       0.095367
     58 H12          1.8110     1.7570     4.6980 hx         1 PX4       0.095367
     59 H13          1.2510     1.3520     3.0690 hx         1 PX4       0.095367
     60 H14          0.6590     1.1410    -2.1740 h1         1 PX4       0.073700
     61 H15          2.1700     0.3030    -2.5540 h1         1 PX4       0.073700
     62 H16          1.8380     2.3790    -3.9170 h1         1 PX4       0.080700
     63 H17          2.1280     4.5620    -2.7240 h1         1 PX4       0.054700
     64 H18          0.6330     3.7280    -2.2780 h1         1 PX4       0.054700
     65 H19          1.8130     3.8570     1.9130 hc         1 PX4       0.062700
     66 H20          3.3070     4.6920     1.4660 hc         1 PX4       0.062700
     67 H21          2.1320     6.8630     1.5930 hc         1 PX4       0.061700
     68 H22          0.6370     6.0290     2.0390 hc         1 PX4       0.061700
     69 H23          3.2370     5.9650     3.6140 hc         1 PX4       0.031700
     70 H24          1.7420     5.1300     4.0600 hc         1 PX4       0.031700
     71 H25          2.0610     8.1370     3.7410 hc         1 PX4       0.047700
     72 H26          0.5670     7.3020     4.1880 hc         1 PX4       0.047700
     73 H27          3.1670     7.2390     5.7620 hc         1 PX4       0.036200
     74 H28          1.6730     6.4050     6.2090 hc         1 PX4       0.036200
     75 H29          1.9920     9.4110     5.8890 hc         1 PX4       0.044200
     76 H30          0.4980     8.5760     6.3350 hc         1 PX4       0.044200
     77 H31          3.0970     8.5120     7.9110 hc         1 PX4       0.038700
     78 H32          1.6020     7.6780     8.3570 hc         1 PX4       0.038700
     79 H33          1.9230    10.6850     8.0380 hc         1 PX4       0.042700
     80 H34          0.4280     9.8510     8.4840 hc         1 PX4       0.042700
     81 H35          1.5330     8.9520    10.5060 hc         1 PX4       0.039700
     82 H36          3.0280     9.7860    10.0600 hc         1 PX4       0.039700
     83 H37          0.3580    11.1230    10.6320 hc         1 PX4       0.042200
     84 H38          1.8520    11.9580    10.1850 hc         1 PX4       0.042200
     85 H39          1.4640    10.2250    12.6540 hc         1 PX4       0.040200
     86 H40          2.9590    11.0600    12.2070 hc         1 PX4       0.040200
     87 H41          1.7830    13.2320    12.3350 hc         1 PX4       0.040700
     88 H42          0.2880    12.3970    12.7810 hc         1 PX4       0.040700
     89 H43          1.4020    11.4940    14.8000 hc         1 PX4       0.032367
     90 H44          1.4390    13.2620    14.7870 hc         1 PX4       0.032367
     91 H45          2.8880    12.3440    14.3560 hc         1 PX4       0.032367
     92 H46          6.2200     1.3640    -3.0720 hc         1 PX4       0.069200
     93 H47          6.1850     2.8600    -4.0170 hc         1 PX4       0.069200
     94 H48          5.9740     0.0460    -5.1500 hc         1 PX4       0.059700
     95 H49          5.9390     1.5420    -6.0950 hc         1 PX4       0.059700
     96 H50          8.2050     2.1080    -5.2810 hc         1 PX4       0.039200
     97 H51          8.2390     0.6130    -4.3360 hc         1 PX4       0.039200
     98 H52          7.9580     0.7900    -7.3580 hc         1 PX4       0.044700
     99 H53          7.9940    -0.7050    -6.4140 hc         1 PX4       0.044700
    100 H54         10.2250     1.3570    -6.5450 hc         1 PX4       0.039700
    101 H55         10.2600    -0.1380    -5.6000 hc         1 PX4       0.039700
    102 H56         10.0140    -1.4570    -7.6780 hc         1 PX4       0.042200
    103 H57          9.9790     0.0390    -8.6230 hc         1 PX4       0.042200
    104 H58         12.2440     0.6050    -7.8090 hc         1 PX4       0.040200
    105 H59         12.2790    -0.8900    -6.8640 hc         1 PX4       0.040200
    106 H60         11.9980    -0.7130    -9.8870 hc         1 PX4       0.041700
    107 H61         12.0330    -2.2080    -8.9420 hc         1 PX4       0.041700
    108 H62         14.2640    -0.1470    -9.0730 hc         1 PX4       0.040700
    109 H63         14.2990    -1.6420    -8.1290 hc         1 PX4       0.040700
    110 H64         14.0530    -2.9600   -10.2060 hc         1 PX4       0.040700
    111 H65         14.0180    -1.4650   -11.1510 hc         1 PX4       0.040700
    112 H66         16.3180    -2.3920    -9.3930 hc         1 PX4       0.040700
    113 H67         16.2830    -0.8970   -10.3380 hc         1 PX4       0.040700
    114 H68         16.0370    -2.2160   -12.4160 hc         1 PX4       0.039700
    115 H69         16.0720    -3.7110   -11.4710 hc         1 PX4       0.039700
    116 H70         18.3030    -1.6490   -11.6100 hc         1 PX4       0.032367
    117 H71         18.3000    -3.2210   -12.4210 hc         1 PX4       0.032367
    118 H72         18.3390    -3.1370   -10.6540 hc         1 PX4       0.032367
@<TRIPOS>BOND
     1     1     3 1
     2     2     3 1
     3     3     4 1
     4     3    11 1
     5     4     5 1
     6     5     6 1
     7     5    47 1
     8     5    48 1
     9     6     7 1
    10     6    49 1
    11     6    50 1
    12     7     8 1
    13     7     9 1
    14     7    10 1
    15     8    51 1
    16     8    52 1
    17     8    53 1
    18     9    54 1
    19     9    55 1
    20     9    56 1
    21    10    57 1
    22    10    58 1
    23    10    59 1
    24    11    12 1
    25    12    13 1
    26    12    60 1
    27    12    61 1
    28    13    14 1
    29    13    31 1
    30    13    62 1
    31    14    15 1
    32    14    63 1
    33    14    64 1
    34    15    16 1
    35    16    17 2
    36    16    18 1
    37    18    19 1
    38    18    65 1
    39    18    66 1
    40    19    20 1
    41    19    67 1
    42    19    68 1
    43    20    21 1
    44    20    69 1
    45    20    70 1
    46    21    22 1
    47    21    71 1
    48    21    72 1
    49    22    23 1
    50    22    73 1
    51    22    74 1
    52    23    24 1
    53    23    75 1
    54    23    76 1
    55    24    25 1
    56    24    77 1
    57    24    78 1
    58    25    26 1
    59    25    79 1
    60    25    80 1
    61    26    27 1
    62    26    81 1
    63    26    82 1
    64    27    28 1
    65    27    83 1
    66    27    84 1
    67    28    29 1
    68    28    85 1
    69    28    86 1
    70    29    30 1
    71    29    87 1
    72    29    88 1
    73    30    89 1
    74    30    90 1
    75    30    91 1
    76    31    32 1
    77    32    33 2
    78    32    34 1
    79    34    35 1
    80    34    92 1
    81    34    93 1
    82    35    36 1
    83    35    94 1
    84    35    95 1
    85    36    37 1
    86    36    96 1
    87    36    97 1
    88    37    38 1
    89    37    98 1
    90    37    99 1
    91    38    39 1
    92    38   100 1
    93    38   101 1
    94    39    40 1
    95    39   102 1
    96    39   103 1
    97    40    41 1
    98    40   104 1
    99    40   105 1
   100    41    42 1
   101    41   106 1
   102    41   107 1
   103    42    43 1
   104    42   108 1
   105    42   109 1
   106    43    44 1
   107    43   110 1
   108    43   111 1
   109    44    45 1
   110    44   112 1
   111    44   113 1
   112    45    46 1
   113    45   114 1
   114    45   115 1
   115    46   116 1
   116    46   117 1
   117    46   118 1
@<TRIPOS>SUBSTRUCTURE
     1 PX4         1 TEMP              0 ****  ****    0 ROOT
