@<TRIPOS>MOLECULE
molecule
   26    28     1     0     0
SMALL
bcc


@<TRIPOS>ATOM
      1 C1           0.0000     0.0000     0.0000 ca         1 PX5      -0.128000
      2 C2           1.3620     0.0000     0.0000 ca         1 PX5      -0.068000
      3 C3           2.0750     0.0000     1.2150 ca         1 PX5       0.121400
      4 C4           1.3540    -0.0000     2.4130 ca         1 PX5      -0.070100
      5 C5          -0.0390     0.0010     2.3940 ca         1 PX5      -0.088000
      6 C6          -0.7100    -0.0000     1.1920 ca         1 PX5      -0.116000
      7 S7           2.5070    -0.0010     3.7430 ss         1 PX5      -0.034100
      8 C8           3.8130    -0.0010     2.6440 cc         1 PX5       0.394200
      9 N9           3.4050    -0.0000     1.4320 nd         1 PX5      -0.571100
     10 C10          5.2630    -0.0020     3.0510 c3         1 PX5       0.216900
     11 C11          5.9190    -1.2280     2.4990 c2         1 PX5      -0.151700
     12 C12          6.7240    -1.2060     1.4460 ce         1 PX5      -0.202200
     13 C13          7.0120     0.0780     0.7810 c          1 PX5       0.556500
     14 C14          6.7040     1.3180     1.5200 ce         1 PX5      -0.202200
     15 C15          5.8980     1.2660     2.5720 c2         1 PX5      -0.151700
     16 O16          5.3410    -0.0410     4.4780 oh         1 PX5      -0.591800
     17 O17          7.4880     0.1160    -0.3380 o          1 PX5      -0.503100
     18 H1          -0.5350    -0.0010    -0.9420 ha         1 PX5       0.137000
     19 H2           1.9010     0.0000    -0.9400 ha         1 PX5       0.148000
     20 H5          -0.5940     0.0000     3.3240 ha         1 PX5       0.137000
     21 H6          -1.7930    -0.0000     1.1770 ha         1 PX5       0.137000
     22 H11          5.7270    -2.1790     2.9830 ha         1 PX5       0.147000
     23 H12          7.2740    -2.0970     1.1650 ha         1 PX5       0.157000
     24 H14          7.2430     2.2310     1.2940 ha         1 PX5       0.157000
     25 H15          5.6900     2.1830     3.1090 ha         1 PX5       0.147000
     26 HO16         6.2450    -0.0480     4.7440 ho         1 PX5       0.423000
@<TRIPOS>BOND
     1     1     2 ar
     2     1     6 ar
     3     2     3 ar
     4     3     4 ar
     5     3     9 1
     6     4     5 ar
     7     4     7 1
     8     5     6 ar
     9     7     8 1
    10     8     9 2
    11     8    10 1
    12    10    11 1
    13    10    15 1
    14    10    16 1
    15    11    12 2
    16    12    13 1
    17    13    14 1
    18    13    17 2
    19    14    15 2
    20     1    18 1
    21     2    19 1
    22     5    20 1
    23     6    21 1
    24    11    22 1
    25    12    23 1
    26    14    24 1
    27    15    25 1
    28    16    26 1
@<TRIPOS>SUBSTRUCTURE
     1 PX5         1 TEMP              0 ****  ****    0 ROOT
