@<TRIPOS>MOLECULE
PX6
  111   110     1     0     0
SMALL
bcc


@<TRIPOS>ATOM
      1 O1          5.2810    0.4720    1.4220 o         1 PX6     -0.913167
      2 O2          6.2410   -0.9290   -0.4810 o         1 PX6     -0.913167
      3 P1          5.7500   -0.8700    0.9480 p5        1 PX6      1.321900
      4 O3          6.4880   -1.7610    1.9050 o         1 PX6     -0.913167
      5 O4          4.2570   -1.7380    0.7500 os        1 PX6     -0.566200
      6 C1          3.2080   -1.0130    0.2630 c3        1 PX6      0.225400
      7 C2          2.6950   -1.5030   -1.1190 c3        1 PX6      0.075100
      8 C3          3.8070   -1.5700   -2.1680 c3        1 PX6      0.066400
      9 O5          3.8260   -2.8020   -2.8930 os        1 PX6     -0.448900
     10 C4          4.5730   -3.8530   -2.4100 c         1 PX6      0.666100
     11 O6          4.6120   -4.7800   -3.2390 o         1 PX6     -0.614000
     12 C5          5.1440   -3.7970   -1.0470 c3        1 PX6     -0.239400
     13 C6          6.0270   -4.9580   -0.6590 c3        1 PX6     -0.036400
     14 C7          6.5310   -4.7350    0.7570 c3        1 PX6     -0.122400
     15 C8          8.0320   -4.8900    0.8810 c3        1 PX6     -0.046400
     16 C9          8.5030   -4.2880    2.1890 c3        1 PX6     -0.115400
     17 C10        10.0120   -4.2500    2.2750 c3        1 PX6     -0.064400
     18 C11        10.4650   -3.6020    3.5660 c3        1 PX6     -0.082400
     19 C12        11.9740   -3.5140    3.6450 c3        1 PX6     -0.076400
     20 C13        12.4220   -2.8620    4.9360 c3        1 PX6     -0.080400
     21 C14        13.9300   -2.7670    5.0140 c3        1 PX6     -0.078400
     22 C15        14.3750   -2.1130    6.3050 c3        1 PX6     -0.079400
     23 C16        15.8840   -2.0160    6.3830 c3        1 PX6     -0.078400
     24 C17        16.3280   -1.3630    7.6740 c3        1 PX6     -0.079400
     25 C18        17.8370   -1.2640    7.7540 c3        1 PX6     -0.080400
     26 C19        18.2830   -0.6130    9.0370 c3        1 PX6     -0.091100
     27 O7          2.1380   -2.8220   -0.9250 os        1 PX6     -0.394900
     28 C20         0.9510   -3.1300   -1.4880 c         1 PX6      0.640100
     29 O8          0.2520   -2.2710   -2.0440 o         1 PX6     -0.600000
     30 C21         0.6230   -4.5890   -1.3310 c3        1 PX6     -0.140400
     31 C22        -0.8690   -4.8290   -1.3760 c3        1 PX6     -0.074400
     32 C23        -1.1800   -6.3100   -1.3570 c3        1 PX6     -0.079400
     33 C24        -2.6730   -6.5580   -1.3910 c3        1 PX6     -0.078400
     34 C25        -2.9860   -8.0380   -1.3770 c3        1 PX6     -0.079400
     35 C26        -4.4790   -8.2860   -1.4150 c3        1 PX6     -0.078400
     36 C27        -4.7920   -9.7670   -1.4030 c3        1 PX6     -0.079400
     37 C28        -6.2850  -10.0150   -1.4420 c3        1 PX6     -0.078400
     38 C29        -6.5980  -11.4960   -1.4320 c3        1 PX6     -0.079400
     39 C30        -8.0900  -11.7430   -1.4730 c3        1 PX6     -0.078400
     40 C31        -8.4030  -13.2240   -1.4630 c3        1 PX6     -0.079400
     41 C32        -9.8950  -13.4720   -1.5050 c3        1 PX6     -0.079400
     42 C33       -10.2070  -14.9530   -1.4960 c3        1 PX6     -0.079400
     43 C34       -11.7000  -15.2030   -1.5380 c3        1 PX6     -0.080400
     44 C35       -12.0160  -16.6760   -1.5290 c3        1 PX6     -0.092100
     45 H2          3.4880    0.0750    0.1400 h1        1 PX6      0.011700
     46 H3          2.3240   -1.0950    0.9640 h1        1 PX6      0.011700
     47 H4          1.8830   -0.8060   -1.4640 h1        1 PX6      0.038700
     48 H5          4.8080   -1.3370   -1.6690 h1        1 PX6      0.109200
     49 H6          3.6000   -0.8170   -2.9770 h1        1 PX6      0.109200
     50 H7          4.2760   -3.7060   -0.3280 hc        1 PX6      0.158200
     51 H8          5.7370   -2.8220   -0.9000 hc        1 PX6      0.158200
     52 H9          5.4560   -5.9210   -0.7280 hc        1 PX6      0.009200
     53 H10         6.8800   -5.0390   -1.3820 hc        1 PX6      0.009200
     54 H11         6.2630   -3.6760    1.1040 hc        1 PX6      0.085200
     55 H12         6.0230   -5.4490    1.4550 hc        1 PX6      0.085200
     56 H13         8.3280   -5.9710    0.8170 hc        1 PX6      0.007200
     57 H14         8.5330   -4.3560    0.0310 hc        1 PX6      0.007200
     58 H15         8.0700   -3.2410    2.2710 hc        1 PX6      0.087200
     59 H16         8.0940   -4.8830    3.0460 hc        1 PX6      0.087200
     60 H17        10.4330   -5.2880    2.2060 hc        1 PX6      0.017200
     61 H18        10.4190   -3.6690    1.4050 hc        1 PX6      0.017200
     62 H19        10.0770   -4.1920    4.4380 hc        1 PX6      0.048200
     63 H20        10.0180   -2.5750    3.6360 hc        1 PX6      0.048200
     64 H21        12.4190   -4.5420    3.5690 hc        1 PX6      0.029200
     65 H22        12.3600   -2.9220    2.7730 hc        1 PX6      0.029200
     66 H23        11.9740   -1.8360    5.0100 hc        1 PX6      0.040700
     67 H24        12.0370   -3.4540    5.8080 hc        1 PX6      0.040700
     68 H25        14.3770   -3.7930    4.9380 hc        1 PX6      0.034200
     69 H26        14.3130   -2.1740    4.1420 hc        1 PX6      0.034200
     70 H27        13.9280   -1.0870    6.3790 hc        1 PX6      0.039700
     71 H28        13.9910   -2.7050    7.1780 hc        1 PX6      0.039700
     72 H29        16.2670   -1.4240    5.5110 hc        1 PX6      0.036200
     73 H30        16.3310   -3.0420    6.3080 hc        1 PX6      0.036200
     74 H31        15.8800   -0.3370    7.7490 hc        1 PX6      0.038700
     75 H32        15.9440   -1.9540    8.5470 hc        1 PX6      0.038700
     76 H33        18.2180   -0.6720    6.8790 hc        1 PX6      0.036200
     77 H34        18.2830   -2.2900    7.6760 hc        1 PX6      0.036200
     78 H35        17.9330   -1.2020    9.9200 hc        1 PX6      0.028367
     79 H36        19.3970   -0.5500    9.0760 hc        1 PX6      0.028367
     80 H37        17.8670    0.4200    9.1200 hc        1 PX6      0.028367
     81 H38         1.0580   -4.9620   -0.3660 hc        1 PX6      0.080200
     82 H39         1.1380   -5.1340   -2.1670 hc        1 PX6      0.080200
     83 H40        -1.2940   -4.3570   -2.3010 hc        1 PX6      0.049200
     84 H41        -1.3560   -4.3270   -0.4990 hc        1 PX6      0.049200
     85 H42        -0.7420   -6.7750   -0.4340 hc        1 PX6      0.040200
     86 H43        -0.6960   -6.8080   -2.2390 hc        1 PX6      0.040200
     87 H44        -3.1550   -6.0630   -0.5070 hc        1 PX6      0.037700
     88 H45        -3.1100   -6.0880   -2.3110 hc        1 PX6      0.037700
     89 H46        -2.5010   -8.5330   -2.2600 hc        1 PX6      0.039200
     90 H47        -2.5500   -8.5060   -0.4560 hc        1 PX6      0.039200
     91 H48        -4.9640   -7.7920   -0.5310 hc        1 PX6      0.037200
     92 H49        -4.9150   -7.8160   -2.3350 hc        1 PX6      0.037200
     93 H50        -4.3570  -10.2360   -0.4810 hc        1 PX6      0.039200
     94 H51        -4.3050  -10.2610   -2.2850 hc        1 PX6      0.039200
     95 H52        -6.7200   -9.5450   -2.3640 hc        1 PX6      0.037700
     96 H53        -6.7710   -9.5210   -0.5600 hc        1 PX6      0.037700
     97 H54        -6.1100  -11.9890   -2.3140 hc        1 PX6      0.039200
     98 H55        -6.1630  -11.9650   -0.5100 hc        1 PX6      0.039200
     99 H56        -8.5770  -11.2510   -0.5900 hc        1 PX6      0.038200
    100 H57        -8.5240  -11.2730   -2.3940 hc        1 PX6      0.038200
    101 H58        -7.9690  -13.6940   -0.5410 hc        1 PX6      0.039200
    102 H59        -7.9150  -13.7170   -2.3450 hc        1 PX6      0.039200
    103 H60       -10.3290  -13.0020   -2.4260 hc        1 PX6      0.038700
    104 H61       -10.3830  -12.9800   -0.6220 hc        1 PX6      0.038700
    105 H62        -9.7200  -15.4460   -2.3780 hc        1 PX6      0.039200
    106 H63        -9.7740  -15.4240   -0.5740 hc        1 PX6      0.039200
    107 H64       -12.1860  -14.7080   -0.6550 hc        1 PX6      0.037700
    108 H65       -12.1320  -14.7300   -2.4590 hc        1 PX6      0.037700
    109 H66       -13.1200  -16.8380   -1.5600 hc        1 PX6      0.030367
    110 H67       -11.6140  -17.1600   -0.6050 hc        1 PX6      0.030367
    111 H68       -11.5600  -17.1820   -2.4140 hc        1 PX6      0.030367
@<TRIPOS>BOND
     1    1    3 1   
     2    2    3 1   
     3    3    4 1   
     4    3    5 1   
     5    5    6 1   
     6    6    7 1   
     7    6   45 1   
     8    6   46 1   
     9    7    8 1   
    10    7   27 1   
    11    7   47 1   
    12    8    9 1   
    13    8   48 1   
    14    8   49 1   
    15    9   10 1   
    16   10   11 2   
    17   10   12 1   
    18   12   13 1   
    19   12   50 1   
    20   12   51 1   
    21   13   14 1   
    22   13   52 1   
    23   13   53 1   
    24   14   15 1   
    25   14   54 1   
    26   14   55 1   
    27   15   16 1   
    28   15   56 1   
    29   15   57 1   
    30   16   17 1   
    31   16   58 1   
    32   16   59 1   
    33   17   18 1   
    34   17   60 1   
    35   17   61 1   
    36   18   19 1   
    37   18   62 1   
    38   18   63 1   
    39   19   20 1   
    40   19   64 1   
    41   19   65 1   
    42   20   21 1   
    43   20   66 1   
    44   20   67 1   
    45   21   22 1   
    46   21   68 1   
    47   21   69 1   
    48   22   23 1   
    49   22   70 1   
    50   22   71 1   
    51   23   24 1   
    52   23   72 1   
    53   23   73 1   
    54   24   25 1   
    55   24   74 1   
    56   24   75 1   
    57   25   26 1   
    58   25   76 1   
    59   25   77 1   
    60   26   78 1   
    61   26   79 1   
    62   26   80 1   
    63   27   28 1   
    64   28   29 2   
    65   28   30 1   
    66   30   31 1   
    67   30   81 1   
    68   30   82 1   
    69   31   32 1   
    70   31   83 1   
    71   31   84 1   
    72   32   33 1   
    73   32   85 1   
    74   32   86 1   
    75   33   34 1   
    76   33   87 1   
    77   33   88 1   
    78   34   35 1   
    79   34   89 1   
    80   34   90 1   
    81   35   36 1   
    82   35   91 1   
    83   35   92 1   
    84   36   37 1   
    85   36   93 1   
    86   36   94 1   
    87   37   38 1   
    88   37   95 1   
    89   37   96 1   
    90   38   39 1   
    91   38   97 1   
    92   38   98 1   
    93   39   40 1   
    94   39   99 1   
    95   39  100 1   
    96   40   41 1   
    97   40  101 1   
    98   40  102 1   
    99   41   42 1   
   100   41  103 1   
   101   41  104 1   
   102   42   43 1   
   103   42  105 1   
   104   42  106 1   
   105   43   44 1   
   106   43  107 1   
   107   43  108 1   
   108   44  109 1   
   109   44  110 1   
   110   44  111 1   
@<TRIPOS>SUBSTRUCTURE
     1 PX6         1 TEMP              0 ****  ****    0 ROOT
