@<TRIPOS>MOLECULE
molecule
  111   110     1     0     0
SMALL
bcc


@<TRIPOS>ATOM
      1 O1           0.0000     0.0000     0.0000 o          1 PX6      -0.909833
      2 O2           2.0590     1.2580    -0.7360 o          1 PX6      -0.909833
      3 P1           1.5450     0.0000     0.0000 p5         1 PX6       1.146900
      4 O3           2.0820     0.0000     1.5170 o          1 PX6      -0.909833
      5 O4           2.0820    -1.3140    -0.7590 os         1 PX6      -0.522200
      6 C1           1.4800    -1.3170    -2.0560 c3         1 PX6       0.143400
      7 C2           1.9520    -2.5470    -2.8340 c3         1 PX6       0.145100
      8 C3           3.4810    -2.5710    -2.8720 c3         1 PX6       0.173400
      9 O5           4.0000    -2.5100    -1.5170 os         1 PX6      -0.329900
     10 C4           5.3250    -2.5180    -1.3050 c          1 PX6       0.646100
     11 O6           6.0860    -2.5770    -2.2420 o          1 PX6      -0.629000
     12 C5           5.8640    -2.4540     0.1010 c3         1 PX6      -0.125400
     13 C6           7.3920    -2.4780     0.0630 c3         1 PX6      -0.071400
     14 C7           7.9390    -2.4130     1.4910 c3         1 PX6      -0.084400
     15 C8           9.4690    -2.4370     1.4530 c3         1 PX6      -0.080400
     16 C9          10.0150    -2.3720     2.8810 c3         1 PX6      -0.082400
     17 C10         11.5440    -2.3970     2.8430 c3         1 PX6      -0.082400
     18 C11         12.0910    -2.3320     4.2700 c3         1 PX6      -0.082400
     19 C12         13.6200    -2.3560     4.2320 c3         1 PX6      -0.082400
     20 C13         14.1670    -2.2910     5.6600 c3         1 PX6      -0.082400
     21 C14         15.6960    -2.3160     5.6220 c3         1 PX6      -0.082400
     22 C15         16.2440    -2.2510     7.0500 c3         1 PX6      -0.082400
     23 C16         17.7720    -2.2750     7.0110 c3         1 PX6      -0.082400
     24 C17         18.3190    -2.2100     8.4400 c3         1 PX6      -0.082400
     25 C18         19.8490    -2.2340     8.4020 c3         1 PX6      -0.084400
     26 C19         20.3950    -2.1700     9.8290 c3         1 PX6      -0.092100
     27 O7           1.4640    -3.7490    -2.1810 os         1 PX6      -0.405900
     28 C20          0.2740    -4.2650    -2.5260 c          1 PX6       0.645100
     29 O8          -0.3920    -3.7290    -3.3800 o          1 PX6      -0.582000
     30 C21         -0.2320    -5.5120    -1.8480 c3         1 PX6      -0.127400
     31 C22         -1.6000    -5.8860    -2.4220 c3         1 PX6      -0.071400
     32 C23         -2.1130    -7.1520    -1.7340 c3         1 PX6      -0.084400
     33 C24         -3.4820    -7.5240    -2.3080 c3         1 PX6      -0.080400
     34 C25         -3.9950    -8.7910    -1.6190 c3         1 PX6      -0.082400
     35 C26         -5.3640    -9.1640    -2.1930 c3         1 PX6      -0.082400
     36 C27         -5.8770   -10.4320    -1.5050 c3         1 PX6      -0.082400
     37 C28         -7.2450   -10.8040    -2.0790 c3         1 PX6      -0.082400
     38 C29         -7.7590   -12.0700    -1.3900 c3         1 PX6      -0.082400
     39 C30         -9.1270   -12.4440    -1.9640 c3         1 PX6      -0.082400
     40 C31         -9.6400   -13.7100    -1.2760 c3         1 PX6      -0.082400
     41 C32        -11.0100   -14.0830    -1.8500 c3         1 PX6      -0.082400
     42 C33        -11.5220   -15.3500    -1.1620 c3         1 PX6      -0.081400
     43 C34        -12.8910   -15.7230    -1.7350 c3         1 PX6      -0.084400
     44 C35        -13.4040   -16.9890    -1.0480 c3         1 PX6      -0.092100
     45 H2           1.7680    -0.4190    -2.5900 h1         1 PX6       0.057700
     46 H3           0.4020    -1.3450    -1.9540 h1         1 PX6       0.057700
     47 H4           1.5660    -2.5040    -3.8460 h1         1 PX6       0.044700
     48 H5           3.8420    -1.7190    -3.4360 h1         1 PX6       0.031700
     49 H6           3.8160    -3.4860    -3.3460 h1         1 PX6       0.031700
     50 H7           5.5030    -3.3050     0.6650 hc         1 PX6       0.092700
     51 H8           5.5290    -1.5390     0.5740 hc         1 PX6       0.092700
     52 H9           7.7270    -3.3930    -0.4110 hc         1 PX6       0.044700
     53 H10          7.7520    -1.6260    -0.5010 hc         1 PX6       0.044700
     54 H11          7.5790    -3.2650     2.0550 hc         1 PX6       0.046700
     55 H12          7.6040    -1.4980     1.9650 hc         1 PX6       0.046700
     56 H13          9.8040    -3.3520     0.9790 hc         1 PX6       0.036200
     57 H14          9.8300    -1.5850     0.8890 hc         1 PX6       0.036200
     58 H15          9.6540    -3.2240     3.4450 hc         1 PX6       0.042700
     59 H16          9.6800    -1.4580     3.3550 hc         1 PX6       0.042700
     60 H17         11.9050    -1.5450     2.2790 hc         1 PX6       0.037200
     61 H18         11.8790    -3.3110     2.3690 hc         1 PX6       0.037200
     62 H19         11.7300    -3.1840     4.8340 hc         1 PX6       0.041200
     63 H20         11.7560    -1.4170     4.7440 hc         1 PX6       0.041200
     64 H21         13.9810    -1.5040     3.6680 hc         1 PX6       0.038200
     65 H22         13.9560    -3.2710     3.7580 hc         1 PX6       0.038200
     66 H23         13.8060    -3.1430     6.2240 hc         1 PX6       0.041200
     67 H24         13.8310    -1.3770     6.1340 hc         1 PX6       0.041200
     68 H25         16.0570    -1.4640     5.0580 hc         1 PX6       0.039200
     69 H26         16.0310    -3.2300     5.1480 hc         1 PX6       0.039200
     70 H27         15.8830    -3.1020     7.6140 hc         1 PX6       0.040700
     71 H28         15.9090    -1.3360     7.5230 hc         1 PX6       0.040700
     72 H29         18.1070    -3.1900     6.5380 hc         1 PX6       0.039700
     73 H30         18.1330    -1.4240     6.4470 hc         1 PX6       0.039700
     74 H31         17.9590    -3.0620     9.0040 hc         1 PX6       0.041200
     75 H32         17.9840    -1.2950     8.9130 hc         1 PX6       0.041200
     76 H33         20.1840    -3.1490     7.9270 hc         1 PX6       0.039200
     77 H34         20.2090    -1.3820     7.8380 hc         1 PX6       0.039200
     78 H35         21.4780    -2.1870     9.8020 hc         1 PX6       0.030367
     79 H36         20.0600    -1.2550    10.3030 hc         1 PX6       0.030367
     80 H37         20.0350    -3.0220    10.3920 hc         1 PX6       0.030367
     81 H38          0.4650    -6.3240    -2.0190 hc         1 PX6       0.066700
     82 H39         -0.3240    -5.3320    -0.7840 hc         1 PX6       0.066700
     83 H40         -2.2970    -5.0740    -2.2520 hc         1 PX6       0.056700
     84 H41         -1.5080    -6.0650    -3.4870 hc         1 PX6       0.056700
     85 H42         -2.2040    -6.9720    -0.6690 hc         1 PX6       0.037700
     86 H43         -1.4170    -7.9640    -1.9050 hc         1 PX6       0.037700
     87 H44         -3.3910    -7.7030    -3.3720 hc         1 PX6       0.042700
     88 H45         -4.1790    -6.7130    -2.1360 hc         1 PX6       0.042700
     89 H46         -4.0860    -8.6130    -0.5550 hc         1 PX6       0.038700
     90 H47         -3.2980    -9.6030    -1.7910 hc         1 PX6       0.038700
     91 H48         -6.0610    -8.3530    -2.0210 hc         1 PX6       0.040700
     92 H49         -5.2730    -9.3430    -3.2580 hc         1 PX6       0.040700
     93 H50         -5.9680   -10.2530    -0.4410 hc         1 PX6       0.039700
     94 H51         -5.1800   -11.2430    -1.6770 hc         1 PX6       0.039700
     95 H52         -7.1540   -10.9840    -3.1430 hc         1 PX6       0.040200
     96 H53         -7.9420    -9.9920    -1.9080 hc         1 PX6       0.040200
     97 H54         -7.0620   -12.8820    -1.5610 hc         1 PX6       0.040200
     98 H55         -7.8510   -11.8910    -0.3260 hc         1 PX6       0.040200
     99 H56         -9.8240   -11.6320    -1.7940 hc         1 PX6       0.040700
    100 H57         -9.0350   -12.6240    -3.0290 hc         1 PX6       0.040700
    101 H58         -8.9440   -14.5220    -1.4470 hc         1 PX6       0.040200
    102 H59         -9.7310   -13.5310    -0.2110 hc         1 PX6       0.040200
    103 H60        -11.7060   -13.2710    -1.6780 hc         1 PX6       0.040700
    104 H61        -10.9190   -14.2620    -2.9140 hc         1 PX6       0.040700
    105 H62        -11.6130   -15.1720    -0.0970 hc         1 PX6       0.040200
    106 H63        -10.8250   -16.1620    -1.3340 hc         1 PX6       0.040200
    107 H64        -12.8000   -15.9010    -2.8000 hc         1 PX6       0.039200
    108 H65        -13.5880   -14.9110    -1.5640 hc         1 PX6       0.039200
    109 H66        -12.7070   -17.8010    -1.2190 hc         1 PX6       0.030700
    110 H67        -14.3730   -17.2530    -1.4540 hc         1 PX6       0.030700
    111 H68        -13.4950   -16.8100     0.0170 hc         1 PX6       0.030700
@<TRIPOS>BOND
     1     1     3 1
     2     2     3 1
     3     3     4 1
     4     3     5 1
     5     5     6 1
     6     6     7 1
     7     6    45 1
     8     6    46 1
     9     7     8 1
    10     7    27 1
    11     7    47 1
    12     8     9 1
    13     8    48 1
    14     8    49 1
    15     9    10 1
    16    10    11 2
    17    10    12 1
    18    12    13 1
    19    12    50 1
    20    12    51 1
    21    13    14 1
    22    13    52 1
    23    13    53 1
    24    14    15 1
    25    14    54 1
    26    14    55 1
    27    15    16 1
    28    15    56 1
    29    15    57 1
    30    16    17 1
    31    16    58 1
    32    16    59 1
    33    17    18 1
    34    17    60 1
    35    17    61 1
    36    18    19 1
    37    18    62 1
    38    18    63 1
    39    19    20 1
    40    19    64 1
    41    19    65 1
    42    20    21 1
    43    20    66 1
    44    20    67 1
    45    21    22 1
    46    21    68 1
    47    21    69 1
    48    22    23 1
    49    22    70 1
    50    22    71 1
    51    23    24 1
    52    23    72 1
    53    23    73 1
    54    24    25 1
    55    24    74 1
    56    24    75 1
    57    25    26 1
    58    25    76 1
    59    25    77 1
    60    26    78 1
    61    26    79 1
    62    26    80 1
    63    27    28 1
    64    28    29 2
    65    28    30 1
    66    30    31 1
    67    30    81 1
    68    30    82 1
    69    31    32 1
    70    31    83 1
    71    31    84 1
    72    32    33 1
    73    32    85 1
    74    32    86 1
    75    33    34 1
    76    33    87 1
    77    33    88 1
    78    34    35 1
    79    34    89 1
    80    34    90 1
    81    35    36 1
    82    35    91 1
    83    35    92 1
    84    36    37 1
    85    36    93 1
    86    36    94 1
    87    37    38 1
    88    37    95 1
    89    37    96 1
    90    38    39 1
    91    38    97 1
    92    38    98 1
    93    39    40 1
    94    39    99 1
    95    39   100 1
    96    40    41 1
    97    40   101 1
    98    40   102 1
    99    41    42 1
   100    41   103 1
   101    41   104 1
   102    42    43 1
   103    42   105 1
   104    42   106 1
   105    43    44 1
   106    43   107 1
   107    43   108 1
   108    44   109 1
   109    44   110 1
   110    44   111 1
@<TRIPOS>SUBSTRUCTURE
     1 PX6         1 TEMP              0 ****  ****    0 ROOT
