@<TRIPOS>MOLECULE
PX8
  123   122     1     0     0
SMALL
bcc


@<TRIPOS>ATOM
      1 O1         -1.5730   -3.8290   -0.8740 o         1 PX8     -0.848500
      2 O2         -2.3850   -1.5760    0.2130 o         1 PX8     -0.848500
      3 P1         -1.3720   -2.6220   -0.0460 p5        1 PX8      1.438800
      4 O3         -0.9030   -3.0670    1.4580 oh        1 PX8     -0.784400
      5 O4          0.0120   -1.8550   -0.4960 os        1 PX8     -0.592200
      6 C1          1.1830   -2.6120   -0.5820 c3        1 PX8      0.192400
      7 C2          1.7480   -2.5490   -2.0120 c3        1 PX8      0.121100
      8 C3          3.2450   -2.2490   -2.0850 c3        1 PX8      0.150400
      9 O5          3.9550   -3.0990   -1.2020 os        1 PX8     -0.477900
     10 C4          5.3640   -2.9660   -1.2290 c2        1 PX8      0.432100
     11 O6          5.7760   -2.0770   -2.0270 o         1 PX8     -0.574000
     12 C5          6.0260   -3.8330   -0.3790 c2        1 PX8     -0.601200
     13 C6          7.4850   -3.8420   -0.2810 c3        1 PX8      0.076800
     14 C7          7.9670   -3.5320    1.1320 c3        1 PX8     -0.084400
     15 C8          9.4780   -3.5750    1.2310 c3        1 PX8     -0.078400
     16 C9          9.9550   -3.2580    2.6320 c3        1 PX8     -0.079400
     17 C10        11.4660   -3.2940    2.7280 c3        1 PX8     -0.078400
     18 C11        11.9410   -2.9720    4.1280 c3        1 PX8     -0.079400
     19 C12        13.4510   -3.0050    4.2210 c3        1 PX8     -0.078400
     20 C13        13.9250   -2.6790    5.6220 c3        1 PX8     -0.079400
     21 C14        15.4360   -2.7090    5.7130 c3        1 PX8     -0.078400
     22 C15        15.9090   -2.3810    7.1130 c3        1 PX8     -0.079400
     23 C16        17.4200   -2.4090    7.2040 c3        1 PX8     -0.078400
     24 C17        17.8930   -2.0790    8.6040 c3        1 PX8     -0.079400
     25 C18        19.4040   -2.1070    8.6940 c3        1 PX8     -0.079400
     26 C19        19.8770   -1.7760   10.0940 c3        1 PX8     -0.079400
     27 C20        21.3880   -1.8030   10.1860 c3        1 PX8     -0.080400
     28 C21        21.8640   -1.4740   11.5770 c3        1 PX8     -0.092100
     29 O7          1.4920   -3.8520   -2.5810 os        1 PX8     -0.405900
     30 C22         0.9600   -3.9370   -3.8220 c         1 PX8      0.648100
     31 O8          0.9360   -2.9540   -4.5740 o         1 PX8     -0.592000
     32 C23         0.4510   -5.3190   -4.1260 c3        1 PX8     -0.121400
     33 C24        -0.9830   -5.4410   -3.6510 c3        1 PX8     -0.111400
     34 C25        -1.4620   -6.8740   -3.7190 c3        1 PX8     -0.061400
     35 C26        -2.8750   -6.9830   -3.1860 c3        1 PX8     -0.086400
     36 C27        -3.3440   -8.4220   -3.1500 c3        1 PX8     -0.075400
     37 C28        -4.7600   -8.5230   -2.6250 c3        1 PX8     -0.080400
     38 C29        -5.2310   -9.9610   -2.5790 c3        1 PX8     -0.077400
     39 C30        -6.6480  -10.0600   -2.0560 c3        1 PX8     -0.079400
     40 C31        -7.1210  -11.4970   -2.0110 c3        1 PX8     -0.078400
     41 C32        -8.5400  -11.5940   -1.4920 c3        1 PX8     -0.079400
     42 C33        -9.0140  -13.0300   -1.4490 c3        1 PX8     -0.078400
     43 C34       -10.4330  -13.1260   -0.9310 c3        1 PX8     -0.079400
     44 C35       -10.9090  -14.5630   -0.8910 c3        1 PX8     -0.078400
     45 C36       -12.3280  -14.6580   -0.3740 c3        1 PX8     -0.079400
     46 C37       -12.8050  -16.0940   -0.3360 c3        1 PX8     -0.079400
     47 C38       -14.2240  -16.1910    0.1810 c3        1 PX8     -0.080400
     48 C39       -14.7030  -17.6190    0.2210 c3        1 PX8     -0.091100
     49 H2          0.9800   -3.6790   -0.2920 h1        1 PX8      0.051200
     50 H3          1.9500   -2.1680    0.1130 h1        1 PX8      0.051200
     51 H4          1.2020   -1.7620   -2.6050 h1        1 PX8      0.074700
     52 H5          3.4140   -1.1780   -1.7920 h1        1 PX8      0.030700
     53 H6          3.6100   -2.4000   -3.1350 h1        1 PX8      0.030700
     54 H7         -1.0980   -2.3940    2.0980 ho        1 PX8      0.419000
     55 H8          5.4600   -4.5370    0.2310 ha        1 PX8      0.099000
     56 H9          7.9310   -3.0930   -0.9890 hc        1 PX8     -0.008800
     57 H10         7.9020   -4.8520   -0.5650 hc        1 PX8     -0.008800
     58 H11         7.5970   -2.5180    1.4300 hc        1 PX8      0.028200
     59 H12         7.5230   -4.2710    1.8470 hc        1 PX8      0.028200
     60 H13         9.8460   -4.5910    0.9310 hc        1 PX8      0.025700
     61 H14         9.9190   -2.8380    0.5090 hc        1 PX8      0.025700
     62 H15         9.5150   -3.9950    3.3540 hc        1 PX8      0.034700
     63 H16         9.5840   -2.2420    2.9320 hc        1 PX8      0.034700
     64 H17        11.8360   -4.3100    2.4300 hc        1 PX8      0.033200
     65 H18        11.9040   -2.5580    2.0040 hc        1 PX8      0.033200
     66 H19        11.5030   -3.7090    4.8520 hc        1 PX8      0.037700
     67 H20        11.5670   -1.9570    4.4260 hc        1 PX8      0.037700
     68 H21        13.8230   -4.0210    3.9250 hc        1 PX8      0.036200
     69 H22        13.8880   -2.2690    3.4960 hc        1 PX8      0.036200
     70 H23        13.5500   -1.6640    5.9180 hc        1 PX8      0.038200
     71 H24        13.4890   -3.4160    6.3470 hc        1 PX8      0.038200
     72 H25        15.8710   -1.9730    4.9870 hc        1 PX8      0.037200
     73 H26        15.8100   -3.7250    5.4180 hc        1 PX8      0.037200
     74 H27        15.5330   -1.3660    7.4080 hc        1 PX8      0.038700
     75 H28        15.4750   -3.1170    7.8390 hc        1 PX8      0.038700
     76 H29        17.8540   -1.6730    6.4770 hc        1 PX8      0.038200
     77 H30        17.7950   -3.4250    6.9100 hc        1 PX8      0.038200
     78 H31        17.5170   -1.0640    8.8980 hc        1 PX8      0.039200
     79 H32        17.4590   -2.8160    9.3300 hc        1 PX8      0.039200
     80 H33        19.7800   -3.1220    8.4000 hc        1 PX8      0.038700
     81 H34        19.8370   -1.3700    7.9670 hc        1 PX8      0.038700
     82 H35        19.5010   -0.7610   10.3880 hc        1 PX8      0.039200
     83 H36        19.4440   -2.5120   10.8210 hc        1 PX8      0.039200
     84 H37        21.8190   -1.0670    9.4560 hc        1 PX8      0.037700
     85 H38        21.7620   -2.8180    9.8890 hc        1 PX8      0.037700
     86 H39        21.4630   -2.2110   12.3150 hc        1 PX8      0.030367
     87 H40        21.5210   -0.4550   11.8800 hc        1 PX8      0.030367
     88 H41        22.9790   -1.4990   11.6230 hc        1 PX8      0.030367
     89 H42         1.0970   -6.0690   -3.5990 hc        1 PX8      0.052200
     90 H43         0.5250   -5.4940   -5.2300 hc        1 PX8      0.052200
     91 H44        -1.6420   -4.7910   -4.2830 hc        1 PX8      0.097700
     92 H45        -1.0650   -5.0570   -2.5880 hc        1 PX8      0.097700
     93 H46        -1.4220   -7.2490   -4.7760 hc        1 PX8      0.019200
     94 H47        -0.7810   -7.5260   -3.1100 hc        1 PX8      0.019200
     95 H48        -2.9130   -6.5390   -2.1550 hc        1 PX8      0.059200
     96 H49        -3.5660   -6.3780   -3.8300 hc        1 PX8      0.059200
     97 H50        -2.6580   -9.0230   -2.4980 hc        1 PX8      0.027700
     98 H51        -3.2920   -8.8640   -4.1800 hc        1 PX8      0.027700
     99 H52        -5.4470   -7.9230   -3.2790 hc        1 PX8      0.043700
    100 H53        -4.8090   -8.0760   -1.5970 hc        1 PX8      0.043700
    101 H54        -4.5460  -10.5590   -1.9210 hc        1 PX8      0.033700
    102 H55        -5.1760  -10.4090   -3.6060 hc        1 PX8      0.033700
    103 H56        -7.3320   -9.4590   -2.7120 hc        1 PX8      0.040200
    104 H57        -6.7000   -9.6130   -1.0280 hc        1 PX8      0.040200
    105 H58        -6.4380  -12.0960   -1.3530 hc        1 PX8      0.036200
    106 H59        -7.0660  -11.9440   -3.0390 hc        1 PX8      0.036200
    107 H60        -8.5930  -11.1490   -0.4630 hc        1 PX8      0.039700
    108 H61        -9.2220  -10.9910   -2.1470 hc        1 PX8      0.039700
    109 H62        -8.3320  -13.6320   -0.7920 hc        1 PX8      0.037200
    110 H63        -8.9580  -13.4750   -2.4780 hc        1 PX8      0.037200
    111 H64       -11.1140  -12.5220   -1.5870 hc        1 PX8      0.039700
    112 H65       -10.4880  -12.6830    0.0980 hc        1 PX8      0.039700
    113 H66       -10.2280  -15.1660   -0.2350 hc        1 PX8      0.038200
    114 H67       -10.8530  -15.0060   -1.9210 hc        1 PX8      0.038200
    115 H68       -12.3830  -14.2160    0.6560 hc        1 PX8      0.039200
    116 H69       -13.0090  -14.0530   -1.0300 hc        1 PX8      0.039200
    117 H70       -12.7490  -16.5360   -1.3650 hc        1 PX8      0.038200
    118 H71       -12.1240  -16.6990    0.3200 hc        1 PX8      0.038200
    119 H72       -14.2770  -15.7470    1.2110 hc        1 PX8      0.038200
    120 H73       -14.9030  -15.5830   -0.4740 hc        1 PX8      0.038200
    121 H74       -14.6810  -18.0700   -0.8010 hc        1 PX8      0.030033
    122 H75       -15.7510  -17.6670    0.6050 hc        1 PX8      0.030033
    123 H76       -14.0540  -18.2340    0.8890 hc        1 PX8      0.030033
@<TRIPOS>BOND
     1    1    3 1   
     2    2    3 1   
     3    3    4 1   
     4    3    5 1   
     5    4   54 1   
     6    5    6 1   
     7    6    7 1   
     8    6   49 1   
     9    6   50 1   
    10    7    8 1   
    11    7   29 1   
    12    7   51 1   
    13    8    9 1   
    14    8   52 1   
    15    8   53 1   
    16    9   10 1   
    17   10   11 1   
    18   10   12 2   
    19   12   13 1   
    20   12   55 1   
    21   13   14 1   
    22   13   56 1   
    23   13   57 1   
    24   14   15 1   
    25   14   58 1   
    26   14   59 1   
    27   15   16 1   
    28   15   60 1   
    29   15   61 1   
    30   16   17 1   
    31   16   62 1   
    32   16   63 1   
    33   17   18 1   
    34   17   64 1   
    35   17   65 1   
    36   18   19 1   
    37   18   66 1   
    38   18   67 1   
    39   19   20 1   
    40   19   68 1   
    41   19   69 1   
    42   20   21 1   
    43   20   70 1   
    44   20   71 1   
    45   21   22 1   
    46   21   72 1   
    47   21   73 1   
    48   22   23 1   
    49   22   74 1   
    50   22   75 1   
    51   23   24 1   
    52   23   76 1   
    53   23   77 1   
    54   24   25 1   
    55   24   78 1   
    56   24   79 1   
    57   25   26 1   
    58   25   80 1   
    59   25   81 1   
    60   26   27 1   
    61   26   82 1   
    62   26   83 1   
    63   27   28 1   
    64   27   84 1   
    65   27   85 1   
    66   28   86 1   
    67   28   87 1   
    68   28   88 1   
    69   29   30 1   
    70   30   31 2   
    71   30   32 1   
    72   32   33 1   
    73   32   89 1   
    74   32   90 1   
    75   33   34 1   
    76   33   91 1   
    77   33   92 1   
    78   34   35 1   
    79   34   93 1   
    80   34   94 1   
    81   35   36 1   
    82   35   95 1   
    83   35   96 1   
    84   36   37 1   
    85   36   97 1   
    86   36   98 1   
    87   37   38 1   
    88   37   99 1   
    89   37  100 1   
    90   38   39 1   
    91   38  101 1   
    92   38  102 1   
    93   39   40 1   
    94   39  103 1   
    95   39  104 1   
    96   40   41 1   
    97   40  105 1   
    98   40  106 1   
    99   41   42 1   
   100   41  107 1   
   101   41  108 1   
   102   42   43 1   
   103   42  109 1   
   104   42  110 1   
   105   43   44 1   
   106   43  111 1   
   107   43  112 1   
   108   44   45 1   
   109   44  113 1   
   110   44  114 1   
   111   45   46 1   
   112   45  115 1   
   113   45  116 1   
   114   46   47 1   
   115   46  117 1   
   116   46  118 1   
   117   47   48 1   
   118   47  119 1   
   119   47  120 1   
   120   48  121 1   
   121   48  122 1   
   122   48  123 1   
@<TRIPOS>SUBSTRUCTURE
     1 PX8         1 TEMP              0 ****  ****    0 ROOT
