@<TRIPOS>MOLECULE
molecule
  123   122     1     0     0
SMALL
bcc


@<TRIPOS>ATOM
      1 O1           0.0000     0.0000     0.0000 o          1 PX8      -0.908833
      2 O2           2.0600     1.2630    -0.7250 o          1 PX8      -0.908833
      3 P1           1.5450     0.0000     0.0000 p5         1 PX8       1.144900
      4 O3           2.0810     0.0000     1.5190 o          1 PX8      -0.908833
      5 O4           2.0820    -1.3150    -0.7580 os         1 PX8      -0.521200
      6 C1           1.4790    -1.3190    -2.0540 c3         1 PX8       0.142400
      7 C2           1.9500    -2.5490    -2.8310 c3         1 PX8       0.145100
      8 C3           3.4790    -2.5750    -2.8690 c3         1 PX8       0.173400
      9 O5           3.9980    -2.5130    -1.5150 os         1 PX8      -0.329900
     10 C4           5.3230    -2.5220    -1.3020 c          1 PX8       0.646100
     11 O6           6.0850    -2.5820    -2.2380 o          1 PX8      -0.629000
     12 C5           5.8610    -2.4580     0.1050 c3         1 PX8      -0.125400
     13 C6           7.3910    -2.4830     0.0670 c3         1 PX8      -0.071400
     14 C7           7.9370    -2.4170     1.4940 c3         1 PX8      -0.084400
     15 C8           9.4660    -2.4430     1.4570 c3         1 PX8      -0.080400
     16 C9          10.0130    -2.3770     2.8850 c3         1 PX8      -0.082400
     17 C10         11.5420    -2.4020     2.8470 c3         1 PX8      -0.082400
     18 C11         12.0880    -2.3370     4.2740 c3         1 PX8      -0.082400
     19 C12         13.6170    -2.3630     4.2370 c3         1 PX8      -0.082400
     20 C13         14.1640    -2.2970     5.6650 c3         1 PX8      -0.082400
     21 C14         15.6930    -2.3220     5.6270 c3         1 PX8      -0.082400
     22 C15         16.2390    -2.2570     7.0550 c3         1 PX8      -0.082400
     23 C16         17.7680    -2.2820     7.0180 c3         1 PX8      -0.082400
     24 C17         18.3150    -2.2170     8.4450 c3         1 PX8      -0.082400
     25 C18         19.8440    -2.2420     8.4080 c3         1 PX8      -0.082400
     26 C19         20.3900    -2.1770     9.8360 c3         1 PX8      -0.081400
     27 C20         21.9200    -2.2020     9.7980 c3         1 PX8      -0.084400
     28 C21         22.4660    -2.1370    11.2260 c3         1 PX8      -0.092100
     29 O7           1.4620    -3.7510    -2.1780 os         1 PX8      -0.405900
     30 C22          0.2720    -4.2670    -2.5230 c          1 PX8       0.644100
     31 O8          -0.3940    -3.7310    -3.3780 o          1 PX8      -0.582000
     32 C23         -0.2360    -5.5130    -1.8450 c3         1 PX8      -0.127400
     33 C24         -1.6040    -5.8850    -2.4190 c3         1 PX8      -0.071400
     34 C25         -2.1180    -7.1520    -1.7300 c3         1 PX8      -0.084400
     35 C26         -3.4870    -7.5230    -2.3040 c3         1 PX8      -0.080400
     36 C27         -4.0020    -8.7890    -1.6150 c3         1 PX8      -0.082400
     37 C28         -5.3700    -9.1620    -2.1880 c3         1 PX8      -0.082400
     38 C29         -5.8850   -10.4270    -1.4990 c3         1 PX8      -0.082400
     39 C30         -7.2530   -10.8000    -2.0730 c3         1 PX8      -0.082400
     40 C31         -7.7670   -12.0660    -1.3850 c3         1 PX8      -0.082400
     41 C32         -9.1360   -12.4380    -1.9580 c3         1 PX8      -0.082400
     42 C33         -9.6510   -13.7030    -1.2690 c3         1 PX8      -0.082400
     43 C34        -11.0190   -14.0760    -1.8430 c3         1 PX8      -0.082400
     44 C35        -11.5340   -15.3420    -1.1550 c3         1 PX8      -0.082400
     45 C36        -12.9020   -15.7140    -1.7280 c3         1 PX8      -0.082400
     46 C37        -13.4170   -16.9800    -1.0390 c3         1 PX8      -0.082400
     47 C38        -14.7850   -17.3520    -1.6130 c3         1 PX8      -0.084400
     48 C39        -15.2990   -18.6180    -0.9240 c3         1 PX8      -0.092100
     49 H2           1.7670    -0.4220    -2.5890 h1         1 PX8       0.057700
     50 H3           0.4010    -1.3470    -1.9510 h1         1 PX8       0.057700
     51 H4           1.5650    -2.5070    -3.8430 h1         1 PX8       0.043700
     52 H5           3.8140    -3.4900    -3.3420 h1         1 PX8       0.031700
     53 H6           3.8410    -1.7240    -3.4340 h1         1 PX8       0.031700
     54 H7           5.5260    -1.5430     0.5780 hc         1 PX8       0.092700
     55 H8           5.4990    -3.3100     0.6680 hc         1 PX8       0.092700
     56 H9           7.7520    -1.6320    -0.4980 hc         1 PX8       0.044700
     57 H10          7.7260    -3.3990    -0.4060 hc         1 PX8       0.044700
     58 H11          7.5750    -3.2680     2.0590 hc         1 PX8       0.046700
     59 H12          7.6030    -1.5010     1.9670 hc         1 PX8       0.046700
     60 H13          9.8280    -1.5930     0.8920 hc         1 PX8       0.035700
     61 H14          9.8000    -3.3590     0.9850 hc         1 PX8       0.035700
     62 H15          9.6790    -1.4610     3.3570 hc         1 PX8       0.043200
     63 H16          9.6510    -3.2280     3.4500 hc         1 PX8       0.043200
     64 H17         11.9040    -1.5510     2.2830 hc         1 PX8       0.037200
     65 H18         11.8770    -3.3180     2.3740 hc         1 PX8       0.037200
     66 H19         11.7270    -3.1880     4.8390 hc         1 PX8       0.041200
     67 H20         11.7540    -1.4220     4.7480 hc         1 PX8       0.041200
     68 H21         13.9520    -3.2780     3.7640 hc         1 PX8       0.038200
     69 H22         13.9790    -1.5120     3.6720 hc         1 PX8       0.038200
     70 H23         13.8300    -1.3820     6.1380 hc         1 PX8       0.041200
     71 H24         13.8030    -3.1480     6.2290 hc         1 PX8       0.041200
     72 H25         16.0550    -1.4710     5.0630 hc         1 PX8       0.039700
     73 H26         16.0280    -3.2380     5.1540 hc         1 PX8       0.039700
     74 H27         15.9050    -1.3420     7.5280 hc         1 PX8       0.041200
     75 H28         15.8780    -3.1090     7.6190 hc         1 PX8       0.041200
     76 H29         18.1300    -1.4310     6.4530 hc         1 PX8       0.039700
     77 H30         18.1030    -3.1970     6.5440 hc         1 PX8       0.039700
     78 H31         17.9540    -3.0680     9.0090 hc         1 PX8       0.041200
     79 H32         17.9810    -1.3020     8.9180 hc         1 PX8       0.041200
     80 H33         20.1790    -3.1570     7.9350 hc         1 PX8       0.040200
     81 H34         20.2060    -1.3910     7.8440 hc         1 PX8       0.040200
     82 H35         20.0560    -1.2620    10.3090 hc         1 PX8       0.041200
     83 H36         20.0290    -3.0280    10.4000 hc         1 PX8       0.041200
     84 H37         22.2550    -3.1170     9.3250 hc         1 PX8       0.039200
     85 H38         22.2820    -1.3510     9.2340 hc         1 PX8       0.039200
     86 H39         23.5490    -2.1540    11.2000 hc         1 PX8       0.030700
     87 H40         22.1320    -1.2220    11.6990 hc         1 PX8       0.030700
     88 H41         22.1050    -2.9880    11.7900 hc         1 PX8       0.030700
     89 H42         -0.3270    -5.3330    -0.7810 hc         1 PX8       0.066700
     90 H43          0.4600    -6.3260    -2.0150 hc         1 PX8       0.066700
     91 H44         -1.5130    -6.0640    -3.4830 hc         1 PX8       0.056700
     92 H45         -2.3000    -5.0730    -2.2470 hc         1 PX8       0.056700
     93 H46         -1.4220    -7.9640    -1.9010 hc         1 PX8       0.037700
     94 H47         -2.2090    -6.9720    -0.6660 hc         1 PX8       0.037700
     95 H48         -4.1830    -6.7110    -2.1330 hc         1 PX8       0.042700
     96 H49         -3.3950    -7.7030    -3.3680 hc         1 PX8       0.042700
     97 H50         -3.3050    -9.6010    -1.7850 hc         1 PX8       0.038700
     98 H51         -4.0930    -8.6090    -0.5510 hc         1 PX8       0.038700
     99 H52         -6.0660    -8.3490    -2.0180 hc         1 PX8       0.040700
    100 H53         -5.2790    -9.3410    -3.2520 hc         1 PX8       0.040700
    101 H54         -5.1880   -11.2390    -1.6690 hc         1 PX8       0.039700
    102 H55         -5.9770   -10.2470    -0.4350 hc         1 PX8       0.039700
    103 H56         -7.1610   -10.9800    -3.1370 hc         1 PX8       0.040700
    104 H57         -7.9490    -9.9880    -1.9030 hc         1 PX8       0.040700
    105 H58         -7.0720   -12.8780    -1.5550 hc         1 PX8       0.040200
    106 H59         -7.8590   -11.8860    -0.3200 hc         1 PX8       0.040200
    107 H60         -9.8320   -11.6250    -1.7880 hc         1 PX8       0.040700
    108 H61         -9.0450   -12.6170    -3.0230 hc         1 PX8       0.040700
    109 H62         -8.9540   -14.5150    -1.4390 hc         1 PX8       0.040700
    110 H63         -9.7430   -13.5230    -0.2050 hc         1 PX8       0.040700
    111 H64        -10.9270   -14.2560    -2.9080 hc         1 PX8       0.040700
    112 H65        -11.7150   -13.2640    -1.6730 hc         1 PX8       0.040700
    113 H66        -11.6250   -15.1620    -0.0900 hc         1 PX8       0.040200
    114 H67        -10.8370   -16.1540    -1.3250 hc         1 PX8       0.040200
    115 H68        -13.5980   -14.9020    -1.5570 hc         1 PX8       0.040200
    116 H69        -12.8110   -15.8940    -2.7920 hc         1 PX8       0.040200
    117 H70        -13.5080   -16.8000     0.0250 hc         1 PX8       0.040200
    118 H71        -12.7210   -17.7920    -1.2090 hc         1 PX8       0.040200
    119 H72        -15.4810   -16.5400    -1.4410 hc         1 PX8       0.039700
    120 H73        -14.6940   -17.5310    -2.6770 hc         1 PX8       0.039700
    121 H74        -15.3900   -18.4390     0.1400 hc         1 PX8       0.031033
    122 H75        -14.6030   -19.4310    -1.0960 hc         1 PX8       0.031033
    123 H76        -16.2690   -18.8820    -1.3300 hc         1 PX8       0.031033
@<TRIPOS>BOND
     1     1     3 1
     2     2     3 1
     3     3     4 1
     4     3     5 1
     5     5     6 1
     6     6     7 1
     7     6    49 1
     8     6    50 1
     9     7     8 1
    10     7    29 1
    11     7    51 1
    12     8     9 1
    13     8    52 1
    14     8    53 1
    15     9    10 1
    16    10    11 2
    17    10    12 1
    18    12    13 1
    19    12    54 1
    20    12    55 1
    21    13    14 1
    22    13    56 1
    23    13    57 1
    24    14    15 1
    25    14    58 1
    26    14    59 1
    27    15    16 1
    28    15    60 1
    29    15    61 1
    30    16    17 1
    31    16    62 1
    32    16    63 1
    33    17    18 1
    34    17    64 1
    35    17    65 1
    36    18    19 1
    37    18    66 1
    38    18    67 1
    39    19    20 1
    40    19    68 1
    41    19    69 1
    42    20    21 1
    43    20    70 1
    44    20    71 1
    45    21    22 1
    46    21    72 1
    47    21    73 1
    48    22    23 1
    49    22    74 1
    50    22    75 1
    51    23    24 1
    52    23    76 1
    53    23    77 1
    54    24    25 1
    55    24    78 1
    56    24    79 1
    57    25    26 1
    58    25    80 1
    59    25    81 1
    60    26    27 1
    61    26    82 1
    62    26    83 1
    63    27    28 1
    64    27    84 1
    65    27    85 1
    66    28    86 1
    67    28    87 1
    68    28    88 1
    69    29    30 1
    70    30    31 2
    71    30    32 1
    72    32    33 1
    73    32    89 1
    74    32    90 1
    75    33    34 1
    76    33    91 1
    77    33    92 1
    78    34    35 1
    79    34    93 1
    80    34    94 1
    81    35    36 1
    82    35    95 1
    83    35    96 1
    84    36    37 1
    85    36    97 1
    86    36    98 1
    87    37    38 1
    88    37    99 1
    89    37   100 1
    90    38    39 1
    91    38   101 1
    92    38   102 1
    93    39    40 1
    94    39   103 1
    95    39   104 1
    96    40    41 1
    97    40   105 1
    98    40   106 1
    99    41    42 1
   100    41   107 1
   101    41   108 1
   102    42    43 1
   103    42   109 1
   104    42   110 1
   105    43    44 1
   106    43   111 1
   107    43   112 1
   108    44    45 1
   109    44   113 1
   110    44   114 1
   111    45    46 1
   112    45   115 1
   113    45   116 1
   114    46    47 1
   115    46   117 1
   116    46   118 1
   117    47    48 1
   118    47   119 1
   119    47   120 1
   120    48   121 1
   121    48   122 1
   122    48   123 1
@<TRIPOS>SUBSTRUCTURE
     1 PX8         1 TEMP              0 ****  ****    0 ROOT
