@<TRIPOS>MOLECULE
PX9
   48    49     1     0     0
SMALL
bcc


@<TRIPOS>ATOM
      1 C1           0.0000     0.0000     0.0000 c3         1 PX9       0.007900
      2 C2           1.5300     0.0000     0.0000 c3         1 PX9      -0.023400
      3 C3           2.0390     0.0000     1.4420 c3         1 PX9      -0.036400
      4 C4           3.5700     0.0000     1.4420 c3         1 PX9       0.201400
      5 O5           4.0460     0.0000     2.7890 os         1 PX9      -0.306900
      6 C6           5.3940    -0.0000     2.9680 ca         1 PX9       0.114100
      7 C9           6.2390     0.0060     1.8690 ca         1 PX9      -0.134500
      8 C10          7.6080     0.0060     2.0490 ca         1 PX9      -0.135000
      9 C11          8.1390     0.0000     3.3310 ca         1 PX9       0.112100
     10 C8           7.2930    -0.0050     4.4300 ca         1 PX9      -0.135000
     11 C7           5.9250     0.0000     4.2500 ca         1 PX9      -0.134500
     12 O12          9.4860    -0.0010     3.5090 os         1 PX9      -0.305900
     13 C13          9.9630    -0.0050     4.8560 c3         1 PX9       0.204400
     14 C14         11.4930    -0.0060     4.8570 c3         1 PX9      -0.044400
     15 C15         12.0020    -0.0110     6.2990 c3         1 PX9       0.160800
     16 N16         13.4720    -0.0100     6.2990 n3         1 PX9      -0.536600
     17 C18         13.9990    -0.2550     7.6500 c3         1 PX9       0.107800
     18 C19         15.5280    -0.3050     7.5940 c3         1 PX9       0.214900
     19 O20         16.0200     0.9150     7.0330 os         1 PX9      -0.412600
     20 C21         15.5280     1.1840     5.7170 c3         1 PX9       0.214900
     21 C17         13.9990     1.2490     5.7540 c3         1 PX9       0.107800
     22 H1          -0.3610     0.8840     0.5110 hc         1 PX9       0.002033
     23 H2          -0.3610    -0.8850     0.5110 hc         1 PX9       0.002033
     24 H3          -0.3610     0.0000    -1.0210 hc         1 PX9       0.002033
     25 H4           1.8910     0.8850    -0.5110 hc         1 PX9       0.011700
     26 H5           1.8910    -0.8850    -0.5110 hc         1 PX9       0.011700
     27 H6           1.6780     0.8850     1.9530 hc         1 PX9       0.024700
     28 H7           1.6780    -0.8850     1.9530 hc         1 PX9       0.024700
     29 H8           3.9310     0.8840     0.9310 h1         1 PX9       0.000700
     30 H9           3.9310    -0.8850     0.9320 h1         1 PX9       0.000700
     31 H10          5.8240     0.0100     0.8680 ha         1 PX9       0.117000
     32 H11          8.2680     0.0100     1.1900 ha         1 PX9       0.116500
     33 H12          7.7070    -0.0070     5.4310 ha         1 PX9       0.116500
     34 H13          5.2650    -0.0040     5.1090 ha         1 PX9       0.117000
     35 H14          9.6020    -0.8920     5.3640 h1         1 PX9       0.000700
     36 H15          9.6020     0.8770     5.3700 h1         1 PX9       0.000700
     37 H16         11.8540    -0.8880     4.3430 hc         1 PX9       0.032700
     38 H17         11.8540     0.8800     4.3490 hc         1 PX9       0.032700
     39 H18         11.6410     0.8720     6.8130 h1         1 PX9       0.009700
     40 H19         11.6410    -0.8970     6.8060 h1         1 PX9       0.009700
     41 H21         13.6200    -1.2000     8.0190 h1         1 PX9       0.018450
     42 H22         13.6890     0.5480     8.3090 h1         1 PX9       0.018450
     43 H23         15.8380    -1.1380     6.9740 h1         1 PX9       0.012700
     44 H24         15.9220    -0.4260     8.5960 h1         1 PX9       0.012700
     45 H25         15.8390     0.3910     5.0470 h1         1 PX9       0.012700
     46 H26         15.9220     2.1320     5.3720 h1         1 PX9       0.012700
     47 H27         13.6200     1.3940     4.7500 h1         1 PX9       0.018450
     48 H28         13.6880     2.0730     6.3860 h1         1 PX9       0.018450
@<TRIPOS>BOND
     1     1     2 1   
     2     1    22 1   
     3     1    23 1   
     4     1    24 1   
     5     2     3 1   
     6     2    25 1   
     7     2    26 1   
     8     3     4 1   
     9     3    27 1   
    10     3    28 1   
    11     4     5 1   
    12     4    29 1   
    13     4    30 1   
    14     5     6 1   
    15     6     7 ar  
    16     6    11 ar  
    17     7     8 ar  
    18     7    31 1   
    19     8     9 ar  
    20     8    32 1   
    21     9    10 ar  
    22     9    12 1   
    23    10    11 ar  
    24    10    33 1   
    25    11    34 1   
    26    12    13 1   
    27    13    14 1   
    28    13    35 1   
    29    13    36 1   
    30    14    15 1   
    31    14    37 1   
    32    14    38 1   
    33    15    16 1   
    34    15    39 1   
    35    15    40 1   
    36    16    17 1   
    37    16    21 1   
    38    17    18 1   
    39    17    41 1   
    40    17    42 1   
    41    18    19 1   
    42    18    43 1   
    43    18    44 1   
    44    19    20 1   
    45    20    21 1   
    46    20    45 1   
    47    20    46 1   
    48    21    47 1   
    49    21    48 1   
@<TRIPOS>SUBSTRUCTURE
     1 PX9         1 TEMP              0 ****  ****    0 ROOT
