@<TRIPOS>MOLECULE
PXA
   33    35     1     0     0
SMALL
bcc


@<TRIPOS>ATOM
      1 C1         -0.0060    0.1350   -0.0230 cc        1 PXA     -0.449000
      2 C          -0.7880    0.2850   -1.2520 c         1 PXA      0.601100
      3 O          -0.2990    0.4540   -2.3800 o         1 PXA     -0.591100
      4 C2          1.3860    0.0860   -0.0250 cd        1 PXA      0.200800
      5 N2          2.1440    0.2510   -1.1320 nh        1 PXA     -0.806600
      6 C3          2.1550   -0.1620    1.2620 c         1 PXA      0.561500
      7 O3          3.3630   -0.4280    1.2220 o         1 PXA     -0.514100
      8 C4          1.4050   -0.0710    2.5120 cd        1 PXA     -0.209400
      9 O5         -0.5840    0.1050    3.7100 os        1 PXA     -0.371800
     10 C6         -2.6160   -0.0030    4.9520 ca        1 PXA     -0.239900
     11 C7         -4.0210   -0.1050    4.9150 ca        1 PXA      0.416200
     12 N8         -4.7540   -0.1950    3.7890 nb        1 PXA     -0.636000
     13 C9         -4.1170   -0.1770    2.6030 ca        1 PXA      0.311500
     14 C'         -4.9200   -0.2670    1.3410 c         1 PXA      0.493400
     15 O'         -5.6240   -1.2320    1.0660 o         1 PXA     -0.485100
     16 N10        -2.0640   -0.0170    1.2490 nd        1 PXA     -0.650000
     17 C11        -0.7510    0.0390    1.2300 cc        1 PXA      0.462800
     18 C12         0.0510    0.0250    2.4750 cc        1 PXA      0.200400
     19 C13        -1.9660    0.0100    3.7060 ca        1 PXA      0.252700
     20 C14        -2.6960   -0.0640    2.4940 ca        1 PXA      0.172000
     21 C15         2.1700   -0.0930    3.7790 c3        1 PXA     -0.045900
     22 C16        -1.8750    0.0920    6.2240 c3        1 PXA     -0.049800
     23 H          -1.8960    0.2370   -1.1440 h4        1 PXA      0.032200
     24 HN21        1.7260    0.3880   -2.0270 hn        1 PXA      0.466300
     25 HN22        3.1290    0.1270   -1.0680 hn        1 PXA      0.466300
     26 H7         -4.6000   -0.1240    5.8580 h4        1 PXA      0.037100
     27 H'         -4.8040    0.6140    0.6740 h4        1 PXA      0.026200
     28 H151        1.5820   -0.6010    4.5840 hc        1 PXA      0.058700
     29 H152        3.1420   -0.6290    3.6420 hc        1 PXA      0.058700
     30 H153        2.3860    0.9540    4.1120 hc        1 PXA      0.058700
     31 H161       -0.9040   -0.4600    6.1540 hc        1 PXA      0.057033
     32 H162       -2.4720   -0.3340    7.0680 hc        1 PXA      0.057033
     33 H163       -1.6480    1.1640    6.4550 hc        1 PXA      0.057033
@<TRIPOS>BOND
     1    1    2 1
     2    1    4 2
     3    1   17 1
     4    2    3 2
     5    2   23 1
     6    4    5 1
     7    4    6 1
     8    5   24 1
     9    5   25 1
    10    6    7 2
    11    6    8 1
    12    8   18 2
    13    8   21 1
    14    9   18 1
    15    9   19 1
    16   10   11 ar
    17   10   19 ar
    18   10   22 1
    19   11   12 ar
    20   11   26 1
    21   12   13 ar
    22   13   14 1
    23   13   20 ar
    24   14   15 2
    25   14   27 1
    26   16   17 2
    27   16   20 1
    28   17   18 1
    29   19   20 ar
    30   21   28 1
    31   21   29 1
    32   21   30 1
    33   22   31 1
    34   22   32 1
    35   22   33 1
@<TRIPOS>SUBSTRUCTURE
     1 PXA         1 TEMP              0 ****  ****    0 ROOT
