@<TRIPOS>MOLECULE
PXB
   45    46     1     0     0
SMALL
bcc


@<TRIPOS>ATOM
      1 C1          0.6040   -1.3970    0.1620 c3        1 PXB     -0.096100
      2 C2          1.7400   -0.4140    0.2780 c3        1 PXB     -0.154400
      3 C4          1.8670    0.1210    1.6830 c         1 PXB      0.610100
      4 O6          1.0210   -0.0240    2.5720 o         1 PXB     -0.508100
      5 N8          3.0740    0.8260    2.0210 n         1 PXB     -0.727000
      6 S12         4.7590   -0.3410    3.3530 s4        1 PXB      1.678300
      7 O14         5.5190   -0.5320    2.2420 o         1 PXB     -0.437400
      8 O16         4.8730    0.7730    4.1250 o         1 PXB     -0.437400
      9 C18         3.9750   -1.5420    3.9160 ca        1 PXB     -0.654500
     10 C20         4.0050   -2.8220    3.2880 ca        1 PXB      0.047000
     11 C21         3.3360   -3.9040    3.8060 ca        1 PXB     -0.174000
     12 C22         2.5740   -3.7900    4.9960 ca        1 PXB      0.209000
     13 C23         2.5270   -2.5240    5.6300 ca        1 PXB     -0.174000
     14 C24         3.1990   -1.4430    5.1070 ca        1 PXB      0.047000
     15 C31         1.8890   -4.9100    5.5490 cc        1 PXB     -0.363600
     16 C33         1.4570   -5.0980    6.8710 cd        1 PXB      0.374000
     17 C35         1.4810   -6.1590    4.8680 cc        1 PXB      0.416800
     18 O37         0.8630   -6.3620    6.9450 os        1 PXB     -0.087100
     19 N39         0.8780   -6.9600    5.7660 nd        1 PXB     -0.311300
     20 C42         1.6490   -6.5010    3.4590 ca        1 PXB     -0.172500
     21 C44         2.6880   -7.3560    3.0670 ca        1 PXB     -0.103500
     22 C45         2.8250   -7.7080    1.7260 ca        1 PXB     -0.130500
     23 C46         1.9250   -7.2210    0.7770 ca        1 PXB     -0.105000
     24 C47         0.8850   -6.3780    1.1690 ca        1 PXB     -0.130500
     25 C48         0.7410   -6.0180    2.5090 ca        1 PXB     -0.103500
     26 C55         1.5060   -4.3390    8.1200 c3        1 PXB     -0.172400
     27 H1          0.4930   -1.7180   -0.9020 hc        1 PXB      0.059367
     28 H1A        -0.3550   -0.9320    0.5010 hc        1 PXB      0.059367
     29 H1B         0.7940   -2.2990    0.7920 hc        1 PXB      0.059367
     30 H2          2.7030   -0.8970   -0.0400 hc        1 PXB      0.083700
     31 H2A         1.5580    0.4620   -0.4050 hc        1 PXB      0.083700
     32 HN8         3.5670    1.1430    1.2040 hn        1 PXB      0.306000
     33 H20         4.6010   -2.9410    2.3620 ha        1 PXB      0.168000
     34 H21         3.3920   -4.8830    3.2950 ha        1 PXB      0.180000
     35 H23         1.9260   -2.3980    6.5470 ha        1 PXB      0.180000
     36 H24         3.1400   -0.4630    5.6200 ha        1 PXB      0.168000
     37 H44         3.3810   -7.7630    3.8190 ha        1 PXB      0.146000
     38 H45         3.6360   -8.3870    1.4190 ha        1 PXB      0.148000
     39 H46         2.0280   -7.5130   -0.2800 ha        1 PXB      0.149000
     40 H47         0.1630   -6.0100    0.4240 ha        1 PXB      0.148000
     41 H48        -0.0950   -5.3730    2.8200 ha        1 PXB      0.146000
     42 H55         0.7060   -3.5530    8.1190 hc        1 PXB      0.089367
     43 H55A        2.5040   -3.8460    8.2370 hc        1 PXB      0.089367
     44 H55B        1.3300   -5.0140    8.9990 hc        1 PXB      0.089367
     45 H82         2.8940    1.5990    2.6430 hn        1 PXB      0.306000
@<TRIPOS>BOND
     1    1    2 1
     2    1   27 1
     3    1   28 1
     4    1   29 1
     5    2    3 1
     6    2   30 1
     7    2   31 1
     8    3    4 2
     9    3    5 1
    10    5   32 1
    11    5   45 1
    12    6    7 1
    13    6    8 1
    14    6    9 1
    15    9   10 ar
    16    9   14 ar
    17   10   11 ar
    18   10   33 1
    19   11   12 ar
    20   11   34 1
    21   12   13 ar
    22   12   15 1
    23   13   14 ar
    24   13   35 1
    25   14   36 1
    26   15   16 2
    27   15   17 1
    28   16   18 1
    29   16   26 1
    30   17   19 2
    31   17   20 1
    32   18   19 1
    33   20   21 ar
    34   20   25 ar
    35   21   22 ar
    36   21   37 1
    37   22   23 ar
    38   22   38 1
    39   23   24 ar
    40   23   39 1
    41   24   25 ar
    42   24   40 1
    43   25   41 1
    44   26   42 1
    45   26   43 1
    46   26   44 1
@<TRIPOS>SUBSTRUCTURE
     1 PXB         1 TEMP              0 ****  ****    0 ROOT
