@<TRIPOS>MOLECULE
molecule
   26    28     1     0     0
SMALL
bcc


@<TRIPOS>ATOM
      1 OAA          0.0000     0.0000     0.0000 o          1 PXC      -0.833050
      2 OAB          7.8690     0.7100     3.8380 o          1 PXC      -0.833050
      3 OAC          1.9770    -0.0890    -1.0870 o          1 PXC      -0.833050
      4 OAD          9.7120     0.5870     2.6790 o          1 PXC      -0.833050
      5 CAE          2.0730     0.0150     3.7050 ca         1 PXC      -0.149000
      6 CAF          7.6870     0.4840    -0.9590 ca         1 PXC      -0.149000
      7 CAG          1.4050     0.0000     2.4850 ca         1 PXC      -0.143000
      8 CAH          8.3560     0.4980     0.2630 ca         1 PXC      -0.143000
      9 CAI          3.4590     0.1030     3.7380 ca         1 PXC      -0.190800
     10 CAJ          6.3010     0.3950    -0.9920 ca         1 PXC      -0.190800
     11 NAK          4.2270     0.2350     0.1790 nb         1 PXC      -0.581000
     12 NAL          5.5350     0.2630     2.5690 nb         1 PXC      -0.581000
     13 CAM          1.3480     0.0000     0.0000 c          1 PXC       0.888200
     14 CAN          8.4540     0.5740     2.7320 c          1 PXC       0.888200
     15 CAO          2.1240     0.0740     1.2980 ca         1 PXC      -0.139900
     16 CAP          7.6380     0.4240     1.4500 ca         1 PXC      -0.139900
     17 CAQ          4.1900     0.1780     2.5380 ca         1 PXC       0.284300
     18 CAR          5.5710     0.3210     0.2100 ca         1 PXC       0.284300
     19 CAS          3.5290     0.1630     1.3300 ca         1 PXC       0.318300
     20 CAT          6.2330     0.3350     1.4180 ca         1 PXC       0.318300
     21 HAE          1.5120    -0.0430     4.6300 ha         1 PXC       0.098500
     22 HAF          8.2480     0.5410    -1.8840 ha         1 PXC       0.098500
     23 HAG          0.3250    -0.0740     2.4600 ha         1 PXC       0.147000
     24 HAH          9.4370     0.5630     0.2880 ha         1 PXC       0.147000
     25 HAI          3.9790     0.1170     4.6880 ha         1 PXC       0.134000
     26 HAJ          5.7820     0.3820    -1.9430 ha         1 PXC       0.134000
@<TRIPOS>BOND
     1     1    13 1
     2     2    14 1
     3     3    13 1
     4    14     4 1
     5     7     5 ar
     6     5     9 ar
     7     5    21 1
     8    10     6 ar
     9     6     8 ar
    10     6    22 1
    11    15     7 ar
    12     7    23 1
    13     8    16 ar
    14     8    24 1
    15    17     9 ar
    16     9    25 1
    17    10    18 ar
    18    10    26 1
    19    11    18 ar
    20    11    19 ar
    21    20    12 ar
    22    17    12 ar
    23    13    15 1
    24    16    14 1
    25    15    19 ar
    26    20    16 ar
    27    19    17 ar
    28    18    20 ar
@<TRIPOS>SUBSTRUCTURE
     1 PXC         1 TEMP              0 ****  ****    0 ROOT
