@<TRIPOS>MOLECULE
PXC
   26    28     1     0     0
SMALL
bcc


@<TRIPOS>ATOM
      1 OAA         0.8770    1.0610   -0.4220 o         1 PXC     -0.831300
      2 OAB         8.8120    1.1580    3.3570 o         1 PXC     -0.831300
      3 OAC         0.9910   -1.1610   -0.6010 o         1 PXC     -0.831300
      4 OAD         8.9250   -1.0650    3.1780 o         1 PXC     -0.831300
      5 CAE         2.0890   -0.3290    3.6950 ca        1 PXC     -0.128000
      6 CAF         7.7130    0.3250   -0.9400 ca        1 PXC     -0.128000
      7 CAG         1.4080   -0.2630    2.4490 ca        1 PXC     -0.171000
      8 CAH         8.3950    0.2600    0.3060 ca        1 PXC     -0.171000
      9 CAI         3.4480   -0.2660    3.7590 ca        1 PXC     -0.201300
     10 CAJ         6.3550    0.2620   -1.0040 ca        1 PXC     -0.201300
     11 NAK         4.2240    0.0650    0.1210 nb        1 PXC     -0.601000
     12 NAL         5.5790   -0.0680    2.6350 nb        1 PXC     -0.601000
     13 CAM         1.2750   -0.0710   -0.0310 c         1 PXC      0.926200
     14 CAN         8.5280    0.0680    2.7870 c         1 PXC      0.926200
     15 CAO         2.0790   -0.1350    1.2650 ca        1 PXC     -0.114900
     16 CAP         7.7230    0.1310    1.4910 ca        1 PXC     -0.114900
     17 CAQ         4.2260   -0.1300    2.5520 ca        1 PXC      0.283300
     18 CAR         5.5770    0.1260    0.2030 ca        1 PXC      0.283300
     19 CAS         3.5260   -0.0620    1.2740 ca        1 PXC      0.319300
     20 CAT         6.2760    0.0590    1.4810 ca        1 PXC      0.319300
     21 HAE         1.4940   -0.4320    4.6140 ha        1 PXC      0.097000
     22 HAF         8.3090    0.4290   -1.8590 ha        1 PXC      0.097000
     23 HAG         0.3100   -0.3180    2.4460 ha        1 PXC      0.123000
     24 HAH         9.4930    0.3150    0.3100 ha        1 PXC      0.123000
     25 HAI         3.9820   -0.3160    4.7200 ha        1 PXC      0.131000
     26 HAJ         5.8210    0.3120   -1.9640 ha        1 PXC      0.131000
@<TRIPOS>BOND
     1    1   13 1   
     2    2   14 1   
     3    3   13 1   
     4    4   14 1   
     5    5    7 ar  
     6    5    9 ar  
     7    5   21 1   
     8    6    8 ar  
     9    6   10 ar  
    10    6   22 1   
    11    7   15 ar  
    12    7   23 1   
    13    8   16 ar  
    14    8   24 1   
    15    9   17 ar  
    16    9   25 1   
    17   10   18 ar  
    18   10   26 1   
    19   11   18 ar  
    20   11   19 ar  
    21   12   17 ar  
    22   12   20 ar  
    23   13   15 1   
    24   14   16 1   
    25   15   19 ar  
    26   16   20 ar  
    27   17   19 ar  
    28   18   20 ar  
@<TRIPOS>SUBSTRUCTURE
     1 PXC         1 TEMP              0 ****  ****    0 ROOT
