@<TRIPOS>MOLECULE
PXD
   46    48     1     0     0
SMALL
bcc


@<TRIPOS>ATOM
      1 FAE          0.0000     0.0000     0.0000 f          1 PXD      -0.212300
      2 CBC          1.3990     0.0000     0.0000 c3         1 PXD       0.414900
      3 FAF          1.8650     0.0000     1.3190 f          1 PXD      -0.212300
      4 CAN          1.9090    -1.2480    -0.7230 c3         1 PXD       0.138400
      5 OAU          1.4330    -2.4160    -0.0500 os         1 PXD      -0.220900
      6 CAW          1.7990    -3.6180    -0.5660 ca         1 PXD       0.275100
      7 CAK          2.6030    -3.6730    -1.6950 ca         1 PXD      -0.219000
      8 CAJ          2.9740    -4.8970    -2.2190 ca         1 PXD      -0.005000
      9 CAL          2.5430    -6.0660    -1.6200 ca         1 PXD      -0.126000
     10 CAY          1.7400    -6.0130    -0.4940 ca         1 PXD      -0.067300
     11 CBE          1.2710    -7.2900     0.1570 c3         1 PXD       0.636200
     12 FAH         -0.1170    -7.4010     0.0180 f          1 PXD      -0.199633
     13 FAI          1.8910    -8.3820    -0.4600 f          1 PXD      -0.199633
     14 FAG          1.6050    -7.2700     1.5150 f          1 PXD      -0.199633
     15 CBA          1.3720    -4.7930     0.0360 ca         1 PXD      -0.144500
     16 SBF          0.3560    -4.7270     1.4740 sy         1 PXD       1.027200
     17 OAC         -0.0540    -3.3730     1.6150 o          1 PXD      -0.553800
     18 OAD         -0.5600    -5.8090     1.3690 o          1 PXD      -0.553800
     19 NAR          1.3240    -5.0600     2.7750 nu         1 PXD      -0.404100
     20 CAV          2.3690    -4.1990     3.1040 cc         1 PXD       0.723200
     21 NAQ          2.8720    -3.2760     2.3100 nd         1 PXD      -0.794100
     22 NAP          3.0110    -4.1790     4.2700 nc         1 PXD      -0.395300
     23 CBB          3.9470    -3.2410     4.2470 cd         1 PXD      -0.133300
     24 NBD          3.8970    -2.6380     3.0190 na         1 PXD       0.528200
     25 CAZ          4.7590    -1.6280     2.7280 cc         1 PXD       0.560800
     26 OAT          4.7030    -1.0330     1.5150 os         1 PXD      -0.414100
     27 CAB          5.6330     0.0220     1.2670 c3         1 PXD       0.264700
     28 NAO          5.6450    -1.2210     3.6070 nd         1 PXD      -0.655000
     29 CAM          5.7400    -1.7740     4.8190 cc         1 PXD       0.318200
     30 CAX          4.9020    -2.7880     5.1830 cd         1 PXD       0.031800
     31 OAS          4.9880    -3.3520     6.4180 os         1 PXD      -0.266900
     32 CAA          5.9840    -2.8320     7.3010 c3         1 PXD       0.239700
     33 H1           1.7590     0.8850    -0.5100 h2         1 PXD       0.024700
     34 H2           2.9920    -1.2480    -0.7230 h1         1 PXD       0.022700
     35 H3           1.5470    -1.2480    -1.7440 h1         1 PXD       0.022700
     36 H4           2.9410    -2.7580    -2.1650 ha         1 PXD       0.124000
     37 H5           3.6020    -4.9410    -3.1000 ha         1 PXD       0.106000
     38 H6           2.8350    -7.0240    -2.0310 ha         1 PXD       0.128000
     39 H7           1.1310    -5.8550     3.3520 hn         1 PXD       0.366800
     40 H8           6.6430    -0.3600     1.3450 h1         1 PXD       0.004367
     41 H9           5.4870     0.8100     1.9960 h1         1 PXD       0.004367
     42 H10          5.4720     0.4180     0.2710 h1         1 PXD       0.004367
     43 H11          6.4830    -1.4120     5.5190 h4         1 PXD       0.008100
     44 H12          5.9430    -3.3640     8.2440 h1         1 PXD       0.001033
     45 H13          5.8000    -1.7790     7.4730 h1         1 PXD       0.001033
     46 H14          6.9630    -2.9600     6.8560 h1         1 PXD       0.001033
@<TRIPOS>BOND
     1     1     2 1   
     2     2     3 1   
     3     2     4 1   
     4     2    33 1   
     5     4     5 1   
     6     4    34 1   
     7     4    35 1   
     8     5     6 1   
     9     6     7 ar  
    10     6    15 ar  
    11     7     8 ar  
    12     7    36 1   
    13     8     9 ar  
    14     8    37 1   
    15     9    10 ar  
    16     9    38 1   
    17    10    11 1   
    18    10    15 ar  
    19    11    12 1   
    20    11    13 1   
    21    11    14 1   
    22    15    16 1   
    23    16    17 2   
    24    16    18 2   
    25    16    19 1   
    26    19    20 1   
    27    19    39 1   
    28    20    21 2   
    29    20    22 1   
    30    21    24 1   
    31    22    23 2   
    32    23    24 1   
    33    23    30 1   
    34    24    25 1   
    35    25    26 1   
    36    25    28 2   
    37    26    27 1   
    38    27    40 1   
    39    27    41 1   
    40    27    42 1   
    41    28    29 1   
    42    29    30 2   
    43    29    43 1   
    44    30    31 1   
    45    31    32 1   
    46    32    44 1   
    47    32    45 1   
    48    32    46 1   
@<TRIPOS>SUBSTRUCTURE
     1 PXD         1 TEMP              0 ****  ****    0 ROOT
