@<TRIPOS>MOLECULE
PXE
   26    26     1     0     0
SMALL
bcc


@<TRIPOS>ATOM
      1 OAA          0.0000     0.0000     0.0000 oh         1 PXE      -0.284500
      2 NAB          1.2180     0.0000     0.0000 n2         1 PXE      -0.308200
      3 CAC          1.8750     0.0000     1.1360 cc         1 PXE       0.322900
      4 CAD          1.1430     0.0000     2.4090 cc         1 PXE      -0.159600
      5 CAE          1.8220     0.0000     3.5740 cd         1 PXE      -0.176400
      6 CAF          3.2840    -0.0000     3.5710 c          1 PXE       0.624500
      7 CAG          4.0160    -0.0000     2.3060 cd         1 PXE      -0.233200
      8 CAH          3.3440    -0.0060     1.1370 cc         1 PXE      -0.083800
      9 OAI          3.8940     0.0010     4.6270 o          1 PXE      -0.565100
     10 CAJ          4.1000    -0.0120    -0.1670 c3         1 PXE       0.055100
     11 CAK          1.0720     0.0010     4.8820 c3         1 PXE       0.017500
     12 CAL          1.4440    -1.2490     5.6830 c3         1 PXE      -0.005100
     13 CAM          1.4450     1.2500     5.6830 c3         1 PXE      -0.005100
     14 HOAA        -0.3140     0.0020    -0.8890 ho         1 PXE       0.424000
     15 HAJ          3.8550     0.8800    -0.7300 hc         1 PXE       0.014033
     16 HAJA         3.8240    -0.8880    -0.7410 hc         1 PXE       0.014033
     17 HAJB         5.1650    -0.0320     0.0330 hc         1 PXE       0.014033
     18 HAK          0.0060     0.0010     4.6870 hc         1 PXE       0.019700
     19 HAL          2.4460    -1.1390     6.0790 hc         1 PXE       0.010700
     20 HALA         0.7440    -1.3750     6.5010 hc         1 PXE       0.010700
     21 HALB         1.4040    -2.1180     5.0370 hc         1 PXE       0.010700
     22 HAM          2.4460     1.1380     6.0810 hc         1 PXE       0.010700
     23 HAMA         0.7440     1.3780     6.4990 hc         1 PXE       0.010700
     24 HAMB         1.4090     2.1180     5.0360 hc         1 PXE       0.010700
     25 HAD          0.0600     0.0010     2.4130 ha         1 PXE       0.119000
     26 HAG          5.0990    -0.0030     2.3080 ha         1 PXE       0.130000
@<TRIPOS>BOND
     1     1     2 1   
     2     1    14 1   
     3     2     3 2   
     4     3     4 1   
     5     3     8 1   
     6     4     5 2   
     7     4    25 1   
     8     5     6 1   
     9     5    11 1   
    10     6     7 1   
    11     6     9 2   
    12     7     8 2   
    13     7    26 1   
    14     8    10 1   
    15    10    15 1   
    16    10    16 1   
    17    10    17 1   
    18    11    12 1   
    19    11    13 1   
    20    11    18 1   
    21    12    19 1   
    22    12    20 1   
    23    12    21 1   
    24    13    22 1   
    25    13    23 1   
    26    13    24 1   
@<TRIPOS>SUBSTRUCTURE
     1 PXE         1 TEMP              0 ****  ****    0 ROOT
