@<TRIPOS>MOLECULE
PXF
   35    37     1     0     0
SMALL
bcc


@<TRIPOS>ATOM
      1 C1           0.0000     0.0000     0.0000 cc         1 PXF      -0.050000
      2 C           -0.7440     0.0010    -1.2580 c          1 PXF       0.593100
      3 O           -1.9580    -0.0000    -1.2450 o          1 PXF      -0.417100
      4 C2           1.3920     0.0000     0.0000 cd         1 PXF      -0.491200
      5 N2           2.0800     0.0010    -1.1880 nz         1 PXF       0.318600
      6 C3           2.1250     0.0000     1.2780 c          1 PXF       0.671500
      7 O3           3.3460     0.0000     1.2710 o          1 PXF      -0.582100
      8 C4           1.4410    -0.0010     2.4980 cd         1 PXF      -0.240400
      9 O5          -0.5900    -0.0020     3.7190 os         1 PXF      -0.287800
     10 C6          -2.6300    -0.0030     4.9370 ca         1 PXF      -0.149600
     11 C7          -4.0050    -0.0030     4.9710 ca         1 PXF      -0.023000
     12 C8          -4.7590    -0.0030     3.8020 ca         1 PXF       0.163900
     13 F8          -6.1080    -0.0040     3.8710 f          1 PXF      -0.084900
     14 C9          -4.1240     0.0180     2.5600 ca         1 PXF      -0.204900
     15 C'          -4.9100     0.0180     1.3210 c          1 PXF       0.644500
     16 O'          -6.1220    -0.0000     1.3720 o          1 PXF      -0.492100
     17 N10         -2.0270     0.0090     1.3360 nd         1 PXF      -0.323000
     18 C11         -0.7090     0.0050     1.2890 cc         1 PXF       0.198800
     19 C12          0.0660    -0.0010     2.5390 cc         1 PXF       0.247400
     20 C13         -1.9410    -0.0030     3.7250 ca         1 PXF       0.311700
     21 C14         -2.6600     0.0130     2.5140 ca         1 PXF       0.176300
     22 C15          2.2230    -0.0020     3.7870 c3         1 PXF       0.075100
     23 C16         -1.8560    -0.0040     6.2300 c3         1 PXF       0.060200
     24 H           -0.2120     0.0020    -2.2020 h4         1 PXF      -0.038800
     25 HN21         1.8390     0.8190    -1.7130 hn         1 PXF       0.205467
     26 HN22         3.0640     0.0000    -1.0040 hn         1 PXF       0.205467
     27 H7          -4.5110    -0.0030     5.9280 ha         1 PXF       0.145000
     28 H'          -4.4090     0.0510     0.3610 h4         1 PXF      -0.002800
     29 H151         1.9740     0.8820     4.3610 hc         1 PXF       0.027700
     30 H152         3.2830    -0.0020     3.5660 hc         1 PXF       0.027700
     31 H153         1.9730    -0.8870     4.3600 hc         1 PXF       0.027700
     32 H161        -1.2330     0.8810     6.2780 hc         1 PXF       0.027033
     33 H162        -1.2330    -0.8880     6.2770 hc         1 PXF       0.027033
     34 H163        -2.5470    -0.0040     7.0640 hc         1 PXF       0.027033
     35 H23          1.8390    -0.8160    -1.7140 hn         1 PXF       0.205467
@<TRIPOS>BOND
     1     1     2 1   
     2     1     4 2   
     3     1    18 1   
     4     2     3 2   
     5     2    24 1   
     6     4     5 1   
     7     4     6 1   
     8     5    25 1   
     9     5    26 1   
    10     5    35 1   
    11     6     7 2   
    12     6     8 1   
    13     8    19 2   
    14     8    22 1   
    15     9    19 1   
    16     9    20 1   
    17    10    11 ar  
    18    10    20 ar  
    19    10    23 1   
    20    11    12 ar  
    21    11    27 1   
    22    12    13 1   
    23    12    14 ar  
    24    14    15 1   
    25    14    21 ar  
    26    15    16 2   
    27    15    28 1   
    28    17    18 2   
    29    17    21 1   
    30    18    19 1   
    31    20    21 ar  
    32    22    29 1   
    33    22    30 1   
    34    22    31 1   
    35    23    32 1   
    36    23    33 1   
    37    23    34 1   
@<TRIPOS>SUBSTRUCTURE
     1 PXF         1 TEMP              0 ****  ****    0 ROOT
