@<TRIPOS>MOLECULE
molecule
   39    40     1     0     0
SMALL
bcc


@<TRIPOS>ATOM
      1 N1           0.0000     0.0000     0.0000 nb         1 PXG      -0.712000
      2 C2           1.3180     0.0000     0.0000 ca         1 PXG       0.334600
      3 C2A          2.0640    -0.0070    -1.3090 c3         1 PXG      -0.123400
      4 C3           2.0250     0.0000     1.1930 ca         1 PXG      -0.023200
      5 O3           3.3840    -0.0000     1.1880 oh         1 PXG      -0.518100
      6 C5          -0.0610     0.0120     2.3480 ca         1 PXG      -0.123600
      7 C6          -0.6950     0.0060     1.1200 ca         1 PXG       0.426200
      8 C5A         -0.8660     0.0180     3.6210 c3         1 PXG       0.182700
      9 OP4         -2.2590     0.0160     3.3040 os         1 PXG      -0.547200
     10 P           -3.0550     0.0240     4.7030 p5         1 PXG       1.141900
     11 OP1         -4.6400     0.0210     4.4190 o          1 PXG      -0.903500
     12 OP2         -2.6600    -1.2870     5.5520 o          1 PXG      -0.903500
     13 OP3         -2.6930     1.2350     5.4710 o          1 PXG      -0.903500
     14 C4           1.3230     0.0120     2.3940 ca         1 PXG      -0.118300
     15 C4A          2.0510     0.0190     3.7130 c3         1 PXG       0.324100
     16 C8           3.7760    -3.4490     6.8610 ca         1 PXG      -0.071600
     17 O2           4.6280    -5.1360     8.4150 o          1 PXG      -0.858800
     18 C9           3.1130    -3.1560     5.6690 ca         1 PXG      -0.161000
     19 C10          2.9180    -1.8350     5.2970 ca         1 PXG       0.197600
     20 C11          3.3730    -0.8090     6.1160 ca         1 PXG      -0.230000
     21 C12          4.0260    -1.0990     7.2990 ca         1 PXG      -0.132000
     22 C13          4.2290    -2.4110     7.6760 ca         1 PXG      -0.160000
     23 O8           3.5970    -5.7570     6.5500 o          1 PXG      -0.858800
     24 N9           2.2870    -1.3590     4.1480 nu         1 PXG      -0.826600
     25 H2A1         2.7690    -0.8300    -1.3190 hc         1 PXG       0.029367
     26 H2A2         2.6000     0.9280    -1.4250 hc         1 PXG       0.029367
     27 H2A3         1.3610    -0.1240    -2.1250 hc         1 PXG       0.029367
     28 HO3          3.6970     0.8700     1.0060 ho         1 PXG       0.392000
     29 H6          -1.7770     0.0060     1.0770 h4         1 PXG       0.072100
     30 H5A1        -0.6270    -0.8640     4.2020 h1         1 PXG       0.078200
     31 H5A2        -0.6270     0.9040     4.1950 h1         1 PXG       0.078200
     32 H4A1         1.4500     0.5330     4.4530 h1         1 PXG       0.041200
     33 H4A2         2.9990     0.5290     3.5990 h1         1 PXG       0.041200
     34 H9           2.7600    -3.9580     5.0320 ha         1 PXG       0.144000
     35 H11          3.2180     0.2230     5.8260 ha         1 PXG       0.107000
     36 H12          4.3780    -0.2950     7.9340 ha         1 PXG       0.086000
     37 H13          4.7410    -2.6350     8.6040 ha         1 PXG       0.132000
     38 HN9          1.9730    -2.1230     3.5820 hn         1 PXG       0.415800
     39 C7           3.9920    -4.8550     7.2610 c          1 PXG       0.893200
@<TRIPOS>BOND
     1     1     2 ar
     2     1     7 ar
     3     2     3 1
     4     2     4 ar
     5     3    25 1
     6     3    26 1
     7     3    27 1
     8     4     5 1
     9     4    14 ar
    10     5    28 1
    11     6     7 ar
    12     6     8 1
    13     6    14 ar
    14     7    29 1
    15     8     9 1
    16     8    30 1
    17     8    31 1
    18     9    10 1
    19    10    11 1
    20    10    12 1
    21    10    13 1
    22    14    15 1
    23    15    24 1
    24    15    32 1
    25    15    33 1
    26    39    16 1
    27    39    17 1
    28    39    23 1
    29    16    18 ar
    30    16    22 ar
    31    18    19 ar
    32    18    34 1
    33    19    20 ar
    34    19    24 1
    35    20    21 ar
    36    20    35 1
    37    21    22 ar
    38    21    36 1
    39    22    37 1
    40    24    38 1
@<TRIPOS>SUBSTRUCTURE
     1 PXG         1 TEMP              0 ****  ****    0 ROOT
