@<TRIPOS>MOLECULE
molecule
   42    43     1     0     0
SMALL
bcc


@<TRIPOS>ATOM
      1 O8           0.0000     0.0000     0.0000 o          1 PXH      -0.529100
      2 C7           1.2070     0.0000     0.0000 c          1 PXH       0.586900
      3 N4           2.0350    -2.4860     1.1910 n7         1 PXH      -0.809200
      4 C3           2.7420    -3.6600     1.7140 c3         1 PXH       0.046500
      5 C11          3.6070    -4.2330     0.6210 c          1 PXH       0.870600
      6 O13          4.0580    -5.4930     0.7150 o          1 PXH      -0.846300
      7 O12          3.8950    -3.5570    -0.3380 o          1 PXH      -0.846300
      8 C2           3.6290    -3.3310     2.9300 c3         1 PXH       0.082100
      9 C10          5.0820    -3.7250     2.6590 c3         1 PXH      -0.074100
     10 C9           3.1070    -4.0350     4.1840 c3         1 PXH      -0.074100
     11 S1           3.4680    -1.5080     3.0970 ss         1 PXH      -0.395200
     12 C5           2.8400    -1.2480     1.3860 c3         1 PXH       0.294600
     13 C6           1.9610     0.0000     1.3050 c3         1 PXH      -0.179700
     14 C17          2.8490     3.7450     1.2590 c3         1 PXH      -0.009100
     15 C14          2.8410     1.2500     1.3850 c3         1 PXH       0.153100
     16 O14          3.5560     1.2500     2.6230 oh         1 PXH      -0.583800
     17 C1           1.9820     4.9750     1.1790 cc         1 PXH      -0.006400
     18 C4           1.5180     5.6590     2.2270 cc         1 PXH      -0.166000
     19 C8           0.7400     6.7590     1.9080 cc         1 PXH      -0.152000
     20 C12          0.5730     6.9690     0.6010 cd         1 PXH      -0.082100
     21 S13          1.4350     5.7350    -0.3100 ss         1 PXH      -0.179800
     22 H1           1.7480    -0.0060    -0.9380 h4         1 PXH      -0.006800
     23 H2           1.8520    -2.6150     0.2150 hn         1 PXH       0.370800
     24 H4           2.0090    -4.4010     2.0110 h1         1 PXH       0.078700
     25 H6           5.1580    -4.8040     2.5970 hc         1 PXH       0.042367
     26 H7           5.7100    -3.3640     3.4640 hc         1 PXH       0.042367
     27 H8           5.4060    -3.2860     1.7230 hc         1 PXH       0.042367
     28 H9           2.0730    -3.7590     4.3500 hc         1 PXH       0.042367
     29 H10          3.7020    -3.7370     5.0390 hc         1 PXH       0.042367
     30 H11          3.1770    -5.1080     4.0520 hc         1 PXH       0.042367
     31 H12          3.6580    -1.2040     0.6770 h2         1 PXH       0.071700
     32 H13          1.2570     0.0000     2.1280 hc         1 PXH       0.106700
     33 H14          1.3180     2.5440     2.1750 hc         1 PXH       0.060700
     34 H15          1.3540     2.4550     0.4080 hc         1 PXH       0.060700
     35 H16          3.4920     3.7000     0.3890 hc         1 PXH       0.055200
     36 H17          3.4560     3.7890     2.1560 hc         1 PXH       0.055200
     37 H18          3.5450     1.2500     0.5620 h1         1 PXH       0.031700
     38 H19          4.4770     1.3620     2.4540 ho         1 PXH       0.402000
     39 H20          1.7330     5.3740     3.2500 ha         1 PXH       0.151000
     40 H21          0.2990     7.3990     2.6620 ha         1 PXH       0.141000
     41 H22         -0.0010     7.7780     0.1670 h4         1 PXH       0.163000
     42 C15          1.9610     2.4980     1.3040 c3         1 PXH      -0.097400
@<TRIPOS>BOND
     1    19    20 2
     2    19    18 1
     3    20    21 1
     4    18    17 2
     5    21    17 1
     6    17    14 1
     7    14    42 1
     8    42    15 1
     9    15    16 1
    10    15    13 1
    11     1     2 2
    12     2    13 1
    13    13    12 1
    14    12     3 1
    15    12    11 1
    16     3     4 1
    17    11     8 1
    18     4     8 1
    19     4     5 1
    20     8    10 1
    21     8     9 1
    22     5     7 1
    23     5     6 1
    24     2    22 1
    25     3    23 1
    26     4    24 1
    27     9    25 1
    28     9    26 1
    29     9    27 1
    30    10    28 1
    31    10    29 1
    32    10    30 1
    33    12    31 1
    34    13    32 1
    35    42    33 1
    36    42    34 1
    37    14    35 1
    38    14    36 1
    39    15    37 1
    40    16    38 1
    41    18    39 1
    42    19    40 1
    43    20    41 1
@<TRIPOS>SUBSTRUCTURE
     1 PXH         1 TEMP              0 ****  ****    0 ROOT
