@<TRIPOS>MOLECULE
PXH
   42    43     1     0     0
SMALL
bcc


@<TRIPOS>ATOM
      1 O8           0.0000     0.0000     0.0000 o          1 PXH      -0.562100
      2 C7           1.2070     0.0000     0.0000 c          1 PXH       0.672900
      3 N4           2.0350    -2.4860     1.1910 n7         1 PXH      -0.595200
      4 C3           2.7420    -3.6600     1.7140 c3         1 PXH      -0.001500
      5 C11          3.6070    -4.2330     0.6210 c          1 PXH       0.965600
      6 O13          4.0580    -5.4930     0.7150 o          1 PXH      -0.888800
      7 O12          3.8950    -3.5570    -0.3380 o          1 PXH      -0.888800
      8 C2           3.6290    -3.3310     2.9300 c3         1 PXH       0.111100
      9 C10          5.0820    -3.7250     2.6590 c3         1 PXH       0.000400
     10 C9           3.1070    -4.0350     4.1840 c3         1 PXH       0.000400
     11 S1           3.4680    -1.5080     3.0970 ss         1 PXH      -0.455200
     12 C5           2.8400    -1.2480     1.3860 c3         1 PXH       0.271600
     13 C6           1.9610     0.0000     1.3050 c3         1 PXH      -0.180700
     14 C17          2.8490     3.7450     1.2590 c3         1 PXH       0.064900
     15 C14          2.8410     1.2500     1.3850 c3         1 PXH       0.199100
     16 O14          3.5560     1.2500     2.6230 oh         1 PXH      -0.562800
     17 C1           1.9820     4.9750     1.1790 cc         1 PXH       0.035600
     18 C4           1.5180     5.6590     2.2270 cd         1 PXH      -0.139000
     19 C8           0.7400     6.7590     1.9080 cd         1 PXH      -0.120000
     20 C12          0.5730     6.9690     0.6010 cc         1 PXH      -0.010100
     21 S13          1.4350     5.7350    -0.3100 ss         1 PXH      -0.287800
     22 H1           1.7480    -0.0060    -0.9380 h4         1 PXH      -0.040800
     23 H2           1.8520    -2.6150     0.2150 hn         1 PXH       0.282800
     24 H4           2.0090    -4.4010     2.0110 h1         1 PXH       0.054700
     25 H6           5.1580    -4.8040     2.5970 hc         1 PXH       0.017033
     26 H7           5.7100    -3.3640     3.4640 hc         1 PXH       0.017033
     27 H8           5.4060    -3.2860     1.7230 hc         1 PXH       0.017033
     28 H9           2.0730    -3.7590     4.3500 hc         1 PXH       0.017033
     29 H10          3.7020    -3.7370     5.0390 hc         1 PXH       0.017033
     30 H11          3.1770    -5.1080     4.0520 hc         1 PXH       0.017033
     31 H12          3.6580    -1.2040     0.6770 h2         1 PXH       0.061700
     32 H13          1.2570     0.0000     2.1280 hc         1 PXH       0.081700
     33 H14          1.3180     2.5440     2.1750 hc         1 PXH       0.034200
     34 H15          1.3540     2.4550     0.4080 hc         1 PXH       0.034200
     35 H16          3.4920     3.7000     0.3890 hc         1 PXH       0.024700
     36 H17          3.4560     3.7890     2.1560 hc         1 PXH       0.024700
     37 H18          3.5450     1.2500     0.5620 h1         1 PXH       0.001700
     38 H19          4.4770     1.3620     2.4540 ho         1 PXH       0.389000
     39 H20          1.7330     5.3740     3.2500 ha         1 PXH       0.126000
     40 H21          0.2990     7.3990     2.6620 ha         1 PXH       0.114000
     41 H22         -0.0010     7.7780     0.1670 h4         1 PXH       0.143000
     42 C15          1.9610     2.4980     1.3040 c3         1 PXH      -0.061400
@<TRIPOS>BOND
     1     1     2 2   
     2     2    13 1   
     3     2    22 1   
     4     3     4 1   
     5     3    12 1   
     6     3    23 1   
     7     4     5 1   
     8     4     8 1   
     9     4    24 1   
    10     5     6 1   
    11     5     7 1   
    12     8     9 1   
    13     8    10 1   
    14     8    11 1   
    15     9    25 1   
    16     9    26 1   
    17     9    27 1   
    18    10    28 1   
    19    10    29 1   
    20    10    30 1   
    21    11    12 1   
    22    12    13 1   
    23    12    31 1   
    24    13    15 1   
    25    13    32 1   
    26    14    17 1   
    27    14    35 1   
    28    14    36 1   
    29    14    42 1   
    30    15    16 1   
    31    15    37 1   
    32    15    42 1   
    33    16    38 1   
    34    17    18 2   
    35    17    21 1   
    36    18    19 1   
    37    18    39 1   
    38    19    20 2   
    39    19    40 1   
    40    20    21 1   
    41    20    41 1   
    42    33    42 1   
    43    34    42 1   
@<TRIPOS>SUBSTRUCTURE
     1 PXH         1 TEMP              0 ****  ****    0 ROOT
