@<TRIPOS>MOLECULE
molecule
   52    53     1     0     0
SMALL
bcc


@<TRIPOS>ATOM
      1 C1           0.0000     0.0000     0.0000 ca         1 PXJ      -0.128000
      2 C2           1.3840     0.0000     0.0000 ca         1 PXJ       0.055100
      3 C3           2.0800     0.0000     1.2060 ca         1 PXJ       0.157600
      4 C4           1.3720    -0.0000     2.4130 ca         1 PXJ      -0.157100
      5 C5          -0.0260    -0.0000     2.3970 ca         1 PXJ      -0.102500
      6 C6          -0.7000    -0.0000     1.1960 ca         1 PXJ      -0.137000
      7 C8           2.0980    -0.0000     3.6980 c          1 PXJ       0.671700
      8 O9           3.3140    -0.0010     3.7100 o          1 PXJ      -0.583100
      9 N10          1.4140     0.0000     4.8590 ns         1 PXJ      -0.589900
     10 C11          2.1330    -0.0010     6.1340 c3         1 PXJ       0.114000
     11 C12          1.1280    -0.0000     7.2880 c3         1 PXJ      -0.101400
     12 C13          1.8800    -0.0000     8.6200 c3         1 PXJ      -0.077400
     13 C14          0.8760     0.0000     9.7740 c3         1 PXJ      -0.077400
     14 C15          1.6290    -0.0010    11.1060 c3         1 PXJ      -0.101400
     15 C16          0.6230    -0.0000    12.2600 c3         1 PXJ       0.114000
     16 N17          1.3430    -0.0000    13.5350 ns         1 PXJ      -0.589900
     17 C18          0.6590     0.0000    14.6960 c          1 PXJ       0.671700
     18 O19         -0.5570     0.0000    14.6840 o          1 PXJ      -0.583100
     19 C20          1.3840     0.0000    15.9810 ca         1 PXJ      -0.157100
     20 C21          0.6770    -0.0000    17.1890 ca         1 PXJ       0.157600
     21 C22          1.3720    -0.0010    18.3940 ca         1 PXJ       0.055100
     22 C23          2.7570    -0.0020    18.3940 ca         1 PXJ      -0.128000
     23 C24          3.4570    -0.0020    17.1990 ca         1 PXJ      -0.137000
     24 C25          2.7820    -0.0070    15.9970 ca         1 PXJ      -0.102500
     25 O26          3.4380    -0.0000     1.2110 oh         1 PXJ      -0.483600
     26 O27          2.0650    -0.0010    -1.1770 oh         1 PXJ      -0.515100
     27 O28         -0.6810     0.0010    17.1830 oh         1 PXJ      -0.483600
     28 O29          0.6920     0.0000    19.5710 oh         1 PXJ      -0.515100
     29 H1          -0.5390     0.0000    -0.9400 ha         1 PXJ       0.143000
     30 H5          -0.5790    -0.0000     3.3290 ha         1 PXJ       0.130000
     31 H6          -1.7830    -0.0000     1.1860 ha         1 PXJ       0.137000
     32 HN10         0.4130     0.0010     4.8490 hn         1 PXJ       0.311500
     33 H11          2.7550    -0.8860     6.1970 h1         1 PXJ       0.054450
     34 H11A         2.7560     0.8830     6.1980 h1         1 PXJ       0.054450
     35 H12          0.5060     0.8840     7.2250 hc         1 PXJ       0.046200
     36 H12A         0.5060    -0.8850     7.2250 hc         1 PXJ       0.046200
     37 H13          2.5030    -0.8850     8.6840 hc         1 PXJ       0.046700
     38 H13A         2.5030     0.8840     8.6830 hc         1 PXJ       0.046700
     39 H14          0.2530    -0.8840     9.7110 hc         1 PXJ       0.046700
     40 H14A         0.2540     0.8850     9.7110 hc         1 PXJ       0.046700
     41 H15          2.2510     0.8840    11.1700 hc         1 PXJ       0.046200
     42 H15A         2.2500    -0.8850    11.1690 hc         1 PXJ       0.046200
     43 H16          0.0010    -0.8850    12.1970 h1         1 PXJ       0.054450
     44 H16A         0.0010     0.8840    12.1970 h1         1 PXJ       0.054450
     45 HN17         2.3440     0.0000    13.5450 hn         1 PXJ       0.311500
     46 H23          3.2950    -0.0010    19.3340 ha         1 PXJ       0.143000
     47 H24          4.5400    -0.0050    17.2090 ha         1 PXJ       0.137000
     48 H25          3.3350    -0.0070    15.0660 ha         1 PXJ       0.130000
     49 HO26         3.7530    -0.8340     0.9040 ho         1 PXJ       0.433000
     50 HO27         2.0120     0.8540    -1.5710 ho         1 PXJ       0.427000
     51 HO28        -0.9960     0.8350    17.4910 ho         1 PXJ       0.433000
     52 HO29         0.7440    -0.8550    19.9660 ho         1 PXJ       0.427000
@<TRIPOS>BOND
     1     1     2 ar
     2     1     6 ar
     3     2     3 ar
     4     2    26 1
     5     3     4 ar
     6     3    25 1
     7     4     5 ar
     8     4     7 1
     9     5     6 ar
    10     7     8 2
    11     7     9 1
    12     9    10 1
    13    10    11 1
    14    11    12 1
    15    12    13 1
    16    13    14 1
    17    14    15 1
    18    15    16 1
    19    16    17 1
    20    17    18 2
    21    17    19 1
    22    19    20 ar
    23    19    24 ar
    24    20    21 ar
    25    20    27 1
    26    21    22 ar
    27    21    28 1
    28    22    23 ar
    29    23    24 ar
    30     1    29 1
    31     5    30 1
    32     6    31 1
    33     9    32 1
    34    10    33 1
    35    10    34 1
    36    11    35 1
    37    11    36 1
    38    12    37 1
    39    12    38 1
    40    13    39 1
    41    13    40 1
    42    14    41 1
    43    14    42 1
    44    15    43 1
    45    15    44 1
    46    16    45 1
    47    22    46 1
    48    23    47 1
    49    24    48 1
    50    25    49 1
    51    26    50 1
    52    27    51 1
    53    28    52 1
@<TRIPOS>SUBSTRUCTURE
     1 PXJ         1 TEMP              0 ****  ****    0 ROOT
