@<TRIPOS>MOLECULE
PXK
   29    31     1     0     0
SMALL
bcc


@<TRIPOS>ATOM
      1 S1           0.0000     0.0000     0.0000 s4         1 PXK       0.702000
      2 C2           1.5570     0.0000     0.0000 c2         1 PXK      -0.544000
      3 C3           1.9760     0.0000     1.4110 c2         1 PXK      -0.224000
      4 N4           0.9550    -0.0010     2.2710 n2         1 PXK       0.209000
      5 C5          -0.2360     0.0000     1.7560 c2         1 PXK      -0.358000
      6 N6           3.3330    -0.0000     1.3970 n2         1 PXK       0.017000
      7 C7           3.7750    -0.0000     0.1610 c2         1 PXK      -0.122000
      8 C8           2.6830    -0.0000    -0.7430 c2         1 PXK      -0.090000
      9 C9           2.7650    -0.0020    -2.2480 c3         1 PXK      -0.171000
     10 C10          2.6700    -1.3840    -2.7430 c2         1 PXK      -0.191000
     11 C11          2.6070    -2.4930    -3.1240 c1         1 PXK      -0.132000
     12 C12          2.4700    -3.7590    -3.8170 c3         1 PXK       0.094000
     13 C13          3.0030    -4.8510    -3.2720 c3         1 PXK      -0.136000
     14 C14          2.8960    -3.5340    -5.2890 c3         1 PXK      -0.136000
     15 C15          0.8500    -3.9560    -3.9860 c3         1 PXK      -0.136000
     16 H5          -1.0700    -0.4930     2.2400 h5         1 PXK       0.179000
     17 H7           4.5840    -0.5750    -0.2750 h4         1 PXK       0.133000
     18 H9           3.1200    -0.9510    -2.6300 DU         1 PXK       0.257000
     19 H9A          1.9620     0.5950    -2.6630 hc         1 PXK       0.101000
     20 H13          4.0740    -4.6930    -3.2130 hc         1 PXK       0.054556
     21 H13A         2.6280    -4.9370    -2.2590 hc         1 PXK       0.054556
     22 H13B         3.0560    -5.6650    -3.9840 hc         1 PXK       0.054556
     23 H14          3.9510    -3.3070    -5.3830 hc         1 PXK       0.054556
     24 H14A         2.2920    -2.8690    -5.8940 hc         1 PXK       0.054556
     25 H14B         2.6960    -4.3670    -5.9520 hc         1 PXK       0.054556
     26 H15          0.3180    -3.2860    -4.6510 hc         1 PXK       0.054556
     27 H15A         0.7580    -4.8810    -4.5430 hc         1 PXK       0.054556
     28 H15B         0.6730    -4.2240    -2.9520 hc         1 PXK       0.054556
     29 HS1         -0.4910     0.4630    -1.1430 hs         1 PXK       0.056000
@<TRIPOS>BOND
     1     1     2 1   
     2     1     5 1   
     3     1    29 1   
     4     2     3 1   
     5     2     8 1   
     6     3     4 1   
     7     3     6 1   
     8     4     5 1   
     9     5    16 1   
    10     6     7 1   
    11     7     8 1   
    12     7    17 1   
    13     8     9 1   
    14     9    10 1   
    15     9    18 1   
    16     9    19 1   
    17    10    11 1   
    18    10    18 1   
    19    11    12 1   
    20    12    13 1   
    21    12    14 1   
    22    12    15 1   
    23    13    20 1   
    24    13    21 1   
    25    13    22 1   
    26    14    23 1   
    27    14    24 1   
    28    14    25 1   
    29    15    26 1   
    30    15    27 1   
    31    15    28 1   
@<TRIPOS>SUBSTRUCTURE
     1 PXK         1 TEMP              0 ****  ****    0 ROOT
