@<TRIPOS>MOLECULE
molecule
   29    30     1     0     0
SMALL
bcc


@<TRIPOS>ATOM
      1 S1           0.0000     0.0000     0.0000 sx         1 PXK       0.056500
      2 C2           1.5570     0.0000     0.0000 cc         1 PXK      -0.237800
      3 C3           1.9760     0.0000     1.4110 cc         1 PXK       0.233300
      4 N4           0.9550    -0.0010     2.2710 nf         1 PXK      -0.127600
      5 C5          -0.2360     0.0000     1.7560 cf         1 PXK      -0.211400
      6 N6           3.3330    -0.0000     1.3970 nc         1 PXK      -0.599000
      7 C7           3.7750    -0.0000     0.1610 cd         1 PXK       0.369200
      8 C8           2.6830    -0.0000    -0.7430 cd         1 PXK      -0.147600
      9 C9           2.7650    -0.0020    -2.2480 c3         1 PXK      -0.238000
     10 C10          2.6700    -1.3840    -2.7430 c1         1 PXK      -0.179100
     11 C11          2.6070    -2.4930    -3.1240 c1         1 PXK      -0.068100
     12 C12          2.4700    -3.7590    -3.8170 c3         1 PXK       0.025100
     13 C13          3.0030    -4.8510    -3.2720 c3         1 PXK      -0.100100
     14 C14          2.8960    -3.5340    -5.2890 c3         1 PXK      -0.100100
     15 C15          0.8500    -3.9560    -3.9860 c3         1 PXK      -0.100100
     16 H5          -1.0700    -0.4930     2.2400 h5         1 PXK       0.214000
     17 H7           4.5840    -0.5750    -0.2750 h4         1 PXK       0.040100
     18 H9           3.1200    -0.9510    -2.6300 hc         1 PXK       0.193200
     19 H9A          1.9620     0.5950    -2.6630 hc         1 PXK       0.193200
     20 H13          4.0740    -4.6930    -3.2130 hc         1 PXK       0.047589
     21 H13A         2.6280    -4.9370    -2.2590 hc         1 PXK       0.047589
     22 H13B         3.0560    -5.6650    -3.9840 hc         1 PXK       0.047589
     23 H14          3.9510    -3.3070    -5.3830 hc         1 PXK       0.047589
     24 H14A         2.2920    -2.8690    -5.8940 hc         1 PXK       0.047589
     25 H14B         2.6960    -4.3670    -5.9520 hc         1 PXK       0.047589
     26 H15          0.3180    -3.2860    -4.6510 hc         1 PXK       0.047589
     27 H15A         0.7580    -4.8810    -4.5430 hc         1 PXK       0.047589
     28 H15B         0.6730    -4.2240    -2.9520 hc         1 PXK       0.047589
     29 HS1         -0.4910     0.4630    -1.1430 hs         1 PXK       0.356000
@<TRIPOS>BOND
     1     2     1 1
     2     5     1 2
     3     3     2 1
     4     8     2 2
     5     6     3 1
     6     3     4 2
     7     4     5 1
     8     5    16 1
     9     6     7 2
    10     7     8 1
    11     7    17 1
    12     8     9 1
    13     9    10 1
    14     9    18 1
    15     9    19 1
    16    10    11 3
    17    11    12 1
    18    12    14 1
    19    12    15 1
    20    12    13 1
    21    13    20 1
    22    13    21 1
    23    13    22 1
    24    14    23 1
    25    14    24 1
    26    14    25 1
    27    15    26 1
    28    15    27 1
    29    15    28 1
    30     1    29 1
@<TRIPOS>SUBSTRUCTURE
     1 PXK         1 TEMP              0 ****  ****    0 ROOT
