@<TRIPOS>MOLECULE
PXL
   21    21     1     0     0
SMALL
bcc


@<TRIPOS>ATOM
      1 OP4         0.0340   -0.0690   -0.0030 oh        1 PXL     -0.594800
      2 C5A         1.4520    0.0080    0.0080 c3        1 PXL      0.175700
      3 C5          1.9320    0.0150    1.4220 ca        1 PXL     -0.137600
      4 C6          1.0180   -0.0500    2.4830 ca        1 PXL      0.377200
      5 N1          1.3710   -0.0490    3.7860 nb        1 PXL     -0.621000
      6 C2          2.6740    0.0180    4.0960 ca        1 PXL      0.385600
      7 C3          3.6870    0.0870    3.0750 ca        1 PXL      0.082800
      8 C4          3.3140    0.0860    1.7190 ca        1 PXL     -0.251600
      9 C4A         4.2970    0.1550    0.6330 c         1 PXL      0.585500
     10 O4A         5.5190    0.2190    0.8090 o         1 PXL     -0.552100
     11 O3          4.9630    0.1500    3.5470 oh        1 PXL     -0.490100
     12 C2A         3.1260    0.0230    5.5190 c3        1 PXL     -0.141400
     13 HP4        -0.2280   -0.0710   -0.9320 ho        1 PXL      0.410000
     14 H5A1        1.8800   -0.8800   -0.5370 h1        1 PXL      0.036700
     15 H5A2        1.7800    0.9520   -0.5110 h1        1 PXL      0.036700
     16 H6         -0.0700   -0.1070    2.2850 h4        1 PXL      0.051100
     17 H4A         3.8820    0.1460   -0.4010 h4        1 PXL      0.008200
     18 HO3         5.5960    0.1950    2.8100 ho        1 PXL      0.459000
     19 H2A1        3.8080   -0.8480    5.6870 hc        1 PXL      0.060033
     20 H2A2        3.7040    0.9610    5.7130 hc        1 PXL      0.060033
     21 H2A3        2.2720   -0.0370    6.2350 hc        1 PXL      0.060033
@<TRIPOS>BOND
     1    1    2 1   
     2    1   13 1   
     3    2    3 1   
     4    2   14 1   
     5    2   15 1   
     6    3    4 ar  
     7    3    8 ar  
     8    4    5 ar  
     9    4   16 1   
    10    5    6 ar  
    11    6    7 ar  
    12    6   12 1   
    13    7    8 ar  
    14    7   11 1   
    15    8    9 1   
    16    9   10 2   
    17    9   17 1   
    18   11   18 1   
    19   12   19 1   
    20   12   20 1   
    21   12   21 1   
@<TRIPOS>SUBSTRUCTURE
     1 PXL         1 TEMP              0 ****  ****    0 ROOT
