@<TRIPOS>MOLECULE
molecule
   21    21     1     0     0
SMALL
bcc


@<TRIPOS>ATOM
      1 OP4          0.0000     0.0000     0.0000 oh         1 PXL      -0.608800
      2 C5A          1.4280     0.0000     0.0000 c3         1 PXL       0.187700
      3 C5           1.9320     0.0000     1.4200 ca         1 PXL      -0.172600
      4 C6           1.0450    -0.0010     2.4770 ca         1 PXL       0.431200
      5 N1           1.4720    -0.0020     3.7230 nb         1 PXL      -0.664000
      6 C2           2.7530    -0.0010     4.0270 ca         1 PXL       0.396600
      7 C3           3.7200     0.0060     3.0310 ca         1 PXL       0.040800
      8 C4           3.3080     0.0010     1.6880 ca         1 PXL      -0.187600
      9 C4A          4.2920     0.0030     0.5930 c          1 PXL       0.573500
     10 O4A          5.4780     0.0020     0.8430 o          1 PXL      -0.496100
     11 O3           5.0380     0.0070     3.3490 oh         1 PXL      -0.495100
     12 C2A          3.1750    -0.0020     5.4740 c3         1 PXL      -0.138400
     13 HP4         -0.3140     0.0000    -0.8890 ho         1 PXL       0.412000
     14 H5A1         1.7890     0.8840    -0.5110 h1         1 PXL       0.035200
     15 H5A2         1.7890    -0.8840    -0.5110 h1         1 PXL       0.035200
     16 H6          -0.0200    -0.0010     2.2780 h4         1 PXL       0.051100
     17 H4A          3.9560    -0.0030    -0.4370 h4         1 PXL       0.000200
     18 HO3          5.3380     0.8960     3.4460 ho         1 PXL       0.429000
     19 H2A1         3.6820     0.9280     5.7030 hc         1 PXL       0.056700
     20 H2A2         2.3000    -0.1010     6.1050 hc         1 PXL       0.056700
     21 H2A3         3.8460    -0.8330     5.6540 hc         1 PXL       0.056700
@<TRIPOS>BOND
     1     1     2 1
     2     1    13 1
     3     2     3 1
     4     2    14 1
     5     2    15 1
     6     3     4 ar
     7     3     8 ar
     8     4     5 ar
     9     4    16 1
    10     5     6 ar
    11     6     7 ar
    12     6    12 1
    13     7     8 ar
    14     7    11 1
    15     8     9 1
    16     9    10 2
    17     9    17 1
    18    11    18 1
    19    12    19 1
    20    12    20 1
    21    12    21 1
@<TRIPOS>SUBSTRUCTURE
     1 PXL         1 TEMP              0 ****  ****    0 ROOT
