@<TRIPOS>MOLECULE
molecule
   25    25     1     0     0
SMALL
bcc


@<TRIPOS>ATOM
      1 N1           0.0000     0.0000     0.0000 nb         1 PXM      -0.632000
      2 C2           1.3180     0.0000     0.0000 ca         1 PXM       0.434600
      3 C2A          2.0630    -0.0060    -1.3100 c3         1 PXM      -0.147400
      4 C3           2.0250     0.0000     1.1910 ca         1 PXM       0.001800
      5 O3           3.3850     0.0010     1.1860 oh         1 PXM      -0.527100
      6 C4           1.3260     0.0120     2.3930 ca         1 PXM      -0.180300
      7 C5          -0.0580     0.0110     2.3480 ca         1 PXM      -0.192600
      8 C5A         -0.8620     0.0160     3.6230 c3         1 PXM       0.190700
      9 O5          -2.2560     0.0140     3.3080 oh         1 PXM      -0.588800
     10 C6          -0.6940     0.0050     1.1210 ca         1 PXM       0.470200
     11 C4A          2.0560     0.0180     3.7110 c3         1 PXM       0.164100
     12 N4           2.2940    -1.3630     4.1470 nz         1 PXM      -0.807600
     13 H2A1         2.6110     0.9220    -1.4190 hc         1 PXM       0.072367
     14 H2A2         2.7560    -0.8380    -1.3280 hc         1 PXM       0.072367
     15 H2A3         1.3580    -0.1070    -2.1260 hc         1 PXM       0.072367
     16 HO3          3.6980     0.8810     1.0600 ho         1 PXM       0.445000
     17 H5A1        -0.6230     0.9040     4.1960 h1         1 PXM       0.022700
     18 H5A2        -0.6220    -0.8650     4.2050 h1         1 PXM       0.022700
     19 HO5         -2.7580     0.0190     4.1060 ho         1 PXM       0.429000
     20 H6          -1.7760     0.0040     1.0800 h4         1 PXM       0.076100
     21 H4A1         3.0040     0.5290     3.5960 hx         1 PXM       0.113200
     22 H4A2         1.4570     0.5320     4.4530 hx         1 PXM       0.113200
     23 HN41         1.9420    -1.4850     5.0760 hn         1 PXM       0.458467
     24 HN42         3.2760    -1.5520     4.1340 hn         1 PXM       0.458467
     25 H43          1.8250    -1.9940     3.5280 hn         1 PXM       0.458467
@<TRIPOS>BOND
     1     1     2 ar
     2     1    10 ar
     3     2     3 1
     4     2     4 ar
     5     3    13 1
     6     3    14 1
     7     3    15 1
     8     4     5 1
     9     4     6 ar
    10     5    16 1
    11     6     7 ar
    12     6    11 1
    13     7     8 1
    14     7    10 ar
    15     8     9 1
    16     8    17 1
    17     8    18 1
    18     9    19 1
    19    10    20 1
    20    11    12 1
    21    11    21 1
    22    11    22 1
    23    12    23 1
    24    12    24 1
    25    25    12 1
@<TRIPOS>SUBSTRUCTURE
     1 PXM         1 TEMP              0 ****  ****    0 ROOT
