@<TRIPOS>MOLECULE
PXN
   61    60     1     0     0
SMALL
bcc


@<TRIPOS>ATOM
      1 CAA         0.7600   -0.0750    0.8510 c3        1 PXN     -0.128350
      2 CAB        10.7240   -3.5130   -1.9450 c3        1 PXN     -0.128350
      3 CAC         4.4200   -2.3690   -1.3520 c3        1 PXN      0.138650
      4 OAD         3.8810   -1.2190   -0.6980 os        1 PXN     -0.434100
      5 CAE         2.5960   -1.4730   -0.1350 c3        1 PXN      0.108900
      6 CAF         2.2610   -0.2590    0.7370 c3        1 PXN      0.138600
      7 OAG         2.8410   -0.5160    2.0130 oh        1 PXN     -0.603300
      8 OAH        10.0570   -2.7540   -4.1450 oh        1 PXN     -0.603300
      9 CAI        10.0090   -3.8440   -3.2410 c3        1 PXN      0.138600
     10 CAJ         8.5600   -4.2680   -2.9810 c3        1 PXN      0.108900
     11 OAK         7.8890   -3.1200   -2.4650 os        1 PXN     -0.434100
     12 CAL         6.5030   -3.3720   -2.2260 c3        1 PXN      0.138650
     13 CAM         5.9170   -2.1210   -1.5610 c3        1 PXN     -0.076000
     14 CAN         6.1310   -0.8930   -2.4510 c3        1 PXN      0.138650
     15 OAO         5.4870   -1.1490   -3.7000 os        1 PXN     -0.434100
     16 CAP         5.6600   -0.0760   -4.6230 c3        1 PXN      0.108900
     17 CAQ         4.8150   -0.4200   -5.8540 c3        1 PXN      0.138600
     18 OAR         3.4530   -0.5810   -5.4960 oh        1 PXN     -0.603300
     19 OAS         3.8260   -4.3600    1.2360 oh        1 PXN     -0.603300
     20 CAT         4.9730   -4.1580    2.0590 c3        1 PXN      0.138600
     21 CAU         5.5240   -2.7730    1.6980 c3        1 PXN      0.108900
     22 OAV         6.4850   -2.9640    0.6600 os        1 PXN     -0.434100
     23 CAW         6.6250   -1.8590   -0.2230 c3        1 PXN      0.138650
     24 CAX         5.3460   -1.6550   -6.5570 c3        1 PXN     -0.128350
     25 CAY         4.6020   -4.2230    3.5280 c3        1 PXN     -0.128350
     26 HAA         0.5280    0.7820    1.5280 hc        1 PXN      0.045533
     27 HAAA        0.2870   -0.9950    1.2700 hc        1 PXN      0.045533
     28 HAAB        0.3220    0.1340   -0.1530 hc        1 PXN      0.045533
     29 HABA       10.1450   -2.7480   -1.3730 hc        1 PXN      0.045533
     30 HABB       11.7400   -3.1060   -2.1640 hc        1 PXN      0.045533
     31 HAC         3.9060   -2.4910   -2.3420 h1        1 PXN      0.050200
     32 HACA        4.2720   -3.2850   -0.7170 h1        1 PXN      0.050200
     33 HAE         1.8460   -1.5740   -0.9620 h1        1 PXN      0.047450
     34 HAEA        2.6170   -2.4110    0.4860 h1        1 PXN      0.047450
     35 HAF         2.7350    0.6640    0.2950 h1        1 PXN      0.061200
     36 HOAG        2.6430    0.2490    2.5650 ho        1 PXN      0.404750
     37 HOAH        9.5300   -2.0430   -3.7570 ho        1 PXN      0.404750
     38 HAI        10.5390   -4.6770   -3.7850 h1        1 PXN      0.061200
     39 HAJ         8.5210   -5.1010   -2.2330 h1        1 PXN      0.047450
     40 HAJA        8.0710   -4.5910   -3.9370 h1        1 PXN      0.047450
     41 HAL         6.3920   -4.2540   -1.5410 h1        1 PXN      0.050200
     42 HALA        5.9890   -3.5670   -3.2050 h1        1 PXN      0.050200
     43 HAN         7.2290   -0.7290   -2.6240 h1        1 PXN      0.050200
     44 HANA        5.6720    0.0130   -1.9740 h1        1 PXN      0.050200
     45 HAP         6.7420    0.0160   -4.8990 h1        1 PXN      0.047450
     46 HAPA        5.3010    0.8820   -4.1620 h1        1 PXN      0.047450
     47 HAQ         4.8150    0.4640   -6.5530 h1        1 PXN      0.061200
     48 HOAR        3.4190   -1.2660   -4.8150 ho        1 PXN      0.404750
     49 HAT         5.7410   -4.9450    1.8140 h1        1 PXN      0.061200
     50 HAU         4.6900   -2.0900    1.3790 h1        1 PXN      0.047450
     51 HAUA        6.0600   -2.3340    2.5810 h1        1 PXN      0.047450
     52 HAW         6.2360   -0.9120    0.2310 h1        1 PXN      0.050200
     53 HAWA        7.7330   -1.7830   -0.4040 h1        1 PXN      0.050200
     54 HAX         6.3640   -1.4550   -6.9650 hc        1 PXN      0.045533
     55 HAXA        5.4090   -2.5070   -5.8370 hc        1 PXN      0.045533
     56 HAXB        4.6640   -1.9390   -7.3930 hc        1 PXN      0.045533
     57 HAY         5.5110   -4.0790    4.1600 hc        1 PXN      0.045533
     58 HAYA        3.8580   -3.4280    3.7750 hc        1 PXN      0.045533
     59 HAYB        4.1530   -5.2160    3.7690 hc        1 PXN      0.045533
     60 HOAS        3.4450   -5.2070    1.4920 ho        1 PXN      0.404750
     61 HAB        10.8250   -4.4290   -1.3180 hc        1 PXN      0.045533
@<TRIPOS>BOND
     1    1    6 1   
     2    1   26 1   
     3    1   27 1   
     4    1   28 1   
     5    2    9 1   
     6    2   29 1   
     7    2   30 1   
     8    2   61 1   
     9    3    4 1   
    10    3   13 1   
    11    3   31 1   
    12    3   32 1   
    13    4    5 1   
    14    5    6 1   
    15    5   33 1   
    16    5   34 1   
    17    6    7 1   
    18    6   35 1   
    19    7   36 1   
    20    8    9 1   
    21    8   37 1   
    22    9   10 1   
    23    9   38 1   
    24   10   11 1   
    25   10   39 1   
    26   10   40 1   
    27   11   12 1   
    28   12   13 1   
    29   12   41 1   
    30   12   42 1   
    31   13   14 1   
    32   13   23 1   
    33   14   15 1   
    34   14   43 1   
    35   14   44 1   
    36   15   16 1   
    37   16   17 1   
    38   16   45 1   
    39   16   46 1   
    40   17   18 1   
    41   17   24 1   
    42   17   47 1   
    43   18   48 1   
    44   19   20 1   
    45   19   60 1   
    46   20   21 1   
    47   20   25 1   
    48   20   49 1   
    49   21   22 1   
    50   21   50 1   
    51   21   51 1   
    52   22   23 1   
    53   23   52 1   
    54   23   53 1   
    55   24   54 1   
    56   24   55 1   
    57   24   56 1   
    58   25   57 1   
    59   25   58 1   
    60   25   59 1   
@<TRIPOS>SUBSTRUCTURE
     1 PXN         1 TEMP              0 ****  ****    0 ROOT
