@<TRIPOS>MOLECULE
molecule
   61    60     1     0     0
SMALL
bcc


@<TRIPOS>ATOM
      1 CAA          0.0000     0.0000     0.0000 c3         1 PXN      -0.114100
      2 CAB         10.2620    -3.7560    -1.5000 c3         1 PXN      -0.114100
      3 CAC          4.0450    -2.3160    -1.4860 c3         1 PXN       0.147900
      4 OAD          3.4640    -1.1910    -0.8240 os         1 PXN      -0.423350
      5 CAE          2.0400    -1.2490    -0.7220 c3         1 PXN       0.143650
      6 CAF          1.5300     0.0000     0.0000 c3         1 PXN       0.147600
      7 OAG          2.0070     0.0000     1.3470 oh         1 PXN      -0.594050
      8 OAH         10.0720    -2.8470    -3.7310 oh         1 PXN      -0.594050
      9 CAI          9.7940    -4.0010    -2.9350 c3         1 PXN       0.147600
     10 CAJ          8.2890    -4.2740    -2.9410 c3         1 PXN       0.143650
     11 OAK          7.6070    -3.1970    -2.2960 os         1 PXN      -0.423350
     12 CAL          6.1870    -3.3540    -2.2470 c3         1 PXN       0.147900
     13 CAM          5.5650    -2.1490    -1.5380 c3         1 PXN      -0.041000
     14 CAN          5.9110    -0.8710    -2.3060 c3         1 PXN       0.147900
     15 OAO          5.3950    -0.9600    -3.6360 os         1 PXN      -0.423350
     16 CAP          5.6650     0.1870    -4.4420 c3         1 PXN       0.143650
     17 CAQ          5.0700    -0.0170    -5.8370 c3         1 PXN       0.147600
     18 OAR          3.6460    -0.0870    -5.7420 oh         1 PXN      -0.594050
     19 OAS          4.4420    -4.6470     2.7170 oh         1 PXN      -0.594050
     20 CAT          5.8660    -4.5760     2.6190 c3         1 PXN       0.147600
     21 CAU          6.2670    -3.2590     1.9510 c3         1 PXN       0.143650
     22 OAV          5.7940    -3.2460     0.6030 os         1 PXN      -0.423350
     23 CAW          6.1170    -2.0530    -0.1150 c3         1 PXN       0.147900
     24 CAX          5.6060    -1.3210    -6.4340 c3         1 PXN      -0.114100
     25 CAY          6.4780    -4.6440     4.0200 c3         1 PXN      -0.114100
     26 HAA         -0.3610    -0.0280    -1.0210 hc         1 PXN       0.043367
     27 HAAA        -0.3610     0.8980     0.4860 hc         1 PXN       0.043367
     28 HAAB        -0.3610    -0.8700     0.5350 hc         1 PXN       0.043367
     29 HABA        11.2860    -4.0920    -1.3910 hc         1 PXN       0.043367
     30 HABB        10.2040    -2.6970    -1.2770 hc         1 PXN       0.043367
     31 HAC          3.8000    -3.2210    -0.9430 h1         1 PXN       0.039825
     32 HACA         3.6550    -2.3830    -2.4940 h1         1 PXN       0.039825
     33 HAE          1.7540    -2.1310    -0.1620 h1         1 PXN       0.031575
     34 HAEA         1.6090    -1.2940    -1.7140 h1         1 PXN       0.031575
     35 HAF          1.8910     0.8850    -0.5100 h1         1 PXN       0.034200
     36 HOAG         2.0260     0.8840     1.6740 ho         1 PXN       0.395750
     37 HOAH        10.7830    -3.0350    -4.3210 ho         1 PXN       0.395750
     38 HAI         10.3180    -4.8570    -3.3440 h1         1 PXN       0.034200
     39 HAJ          7.9410    -4.3610    -3.9640 h1         1 PXN       0.031575
     40 HAJA         8.0870    -5.1980    -2.4120 h1         1 PXN       0.031575
     41 HAL          5.7960    -3.4210    -3.2550 h1         1 PXN       0.039825
     42 HALA         5.9420    -4.2590    -1.7040 h1         1 PXN       0.039825
     43 HAN          5.4710    -0.0180    -1.8040 h1         1 PXN       0.039825
     44 HANA         6.9870    -0.7530    -2.3440 h1         1 PXN       0.039825
     45 HAP          6.7360     0.3270    -4.5240 h1         1 PXN       0.031575
     46 HAPA         5.2200     1.0630    -3.9850 h1         1 PXN       0.031575
     47 HAQ          5.3500     0.8130    -6.4740 h1         1 PXN       0.034200
     48 HOAR         3.2600     0.5030    -6.3680 ho         1 PXN       0.395750
     49 HAT          6.2290    -5.4070     2.0260 h1         1 PXN       0.034200
     50 HAU          7.3460    -3.1650     1.9560 h1         1 PXN       0.031575
     51 HAUA         5.8300    -2.4310     2.4950 h1         1 PXN       0.031575
     52 HAW          5.6770    -1.2000     0.3860 h1         1 PXN       0.039825
     53 HAWA         7.1940    -1.9350    -0.1520 h1         1 PXN       0.039825
     54 HAX          4.9500    -2.1390    -6.1610 hc         1 PXN       0.043367
     55 HAXA         6.6000    -1.5130    -6.0490 hc         1 PXN       0.043367
     56 HAXB         5.6460    -1.2350    -7.5130 hc         1 PXN       0.043367
     57 HAY          7.5470    -4.4840     3.9560 hc         1 PXN       0.043367
     58 HAYA         6.2840    -5.6190     4.4510 hc         1 PXN       0.043367
     59 HAYB         6.0350    -3.8780     4.6450 hc         1 PXN       0.043367
     60 HOAS         4.1750    -5.5500     2.7760 ho         1 PXN       0.395750
     61 HAB          9.6280    -4.3050    -0.8140 hc         1 PXN       0.043367
@<TRIPOS>BOND
     1     6     1 1
     2     1    26 1
     3     1    27 1
     4     1    28 1
     5     9     2 1
     6     2    61 1
     7     2    29 1
     8     2    30 1
     9    13     3 1
    10     4     3 1
    11     3    31 1
    12     3    32 1
    13     4     5 1
    14     5     6 1
    15     5    33 1
    16     5    34 1
    17     6     7 1
    18     6    35 1
    19     7    36 1
    20     8     9 1
    21     8    37 1
    22     9    10 1
    23     9    38 1
    24    10    11 1
    25    10    39 1
    26    10    40 1
    27    11    12 1
    28    12    13 1
    29    12    41 1
    30    12    42 1
    31    13    23 1
    32    13    14 1
    33    15    14 1
    34    14    43 1
    35    14    44 1
    36    15    16 1
    37    17    16 1
    38    16    45 1
    39    16    46 1
    40    24    17 1
    41    17    18 1
    42    17    47 1
    43    18    48 1
    44    19    20 1
    45    19    60 1
    46    21    20 1
    47    20    25 1
    48    20    49 1
    49    22    21 1
    50    21    50 1
    51    21    51 1
    52    22    23 1
    53    23    52 1
    54    23    53 1
    55    24    54 1
    56    24    55 1
    57    24    56 1
    58    25    57 1
    59    25    58 1
    60    25    59 1
@<TRIPOS>SUBSTRUCTURE
     1 PXN         1 TEMP              0 ****  ****    0 ROOT
