@<TRIPOS>MOLECULE
PXO
   12    11     1     0     0
SMALL
bcc


@<TRIPOS>ATOM
      1 C3           0.0000     0.0000     0.0000 c3         1 PXO       0.015900
      2 C2           1.5310     0.0000     0.0000 c3         1 PXO      -0.104700
      3 C1           2.0340     0.0000     1.4210 c2         1 PXO       0.392200
      4 N1           2.8460    -0.9080     1.8120 n2         1 PXO      -0.405200
      5 O1           3.2720    -1.9120     0.9100 oh         1 PXO      -0.378500
      6 H3          -0.3610    -0.1230    -1.0140 hc         1 PXO       0.002700
      7 H3A         -0.3610     0.9390     0.4010 hc         1 PXO       0.002700
      8 H3B         -0.3610    -0.8170     0.6130 hc         1 PXO       0.002700
      9 H2           1.8920     0.8840    -0.5110 hc         1 PXO       0.031700
     10 H2A          1.8920    -0.8840    -0.5110 hc         1 PXO       0.031700
     11 H1           1.7070     0.7690     2.1110 h4         1 PXO      -0.005200
     12 HO1          3.9070    -2.4650     1.3330 ho         1 PXO       0.415000
@<TRIPOS>BOND
     1     1     2 1   
     2     1     6 1   
     3     1     7 1   
     4     1     8 1   
     5     2     3 1   
     6     2     9 1   
     7     2    10 1   
     8     3     4 2   
     9     3    11 1   
    10     4     5 1   
    11     5    12 1   
@<TRIPOS>SUBSTRUCTURE
     1 PXO         1 TEMP              0 ****  ****    0 ROOT
