@<TRIPOS>MOLECULE
molecule
   12    11     1     0     0
SMALL
bcc


@<TRIPOS>ATOM
      1 C3           0.0000     0.0000     0.0000 c3         1 PXO      -0.123100
      2 C2           1.5310     0.0000     0.0000 c3         1 PXO      -0.264700
      3 C1           2.0340     0.0000     1.4210 c2         1 PXO       0.115200
      4 N1           2.8460    -0.9080     1.8120 n2         1 PXO      -0.319200
      5 O1           3.2720    -1.9120     0.9100 oh         1 PXO      -0.466500
      6 H3          -0.3610     0.6660     0.7740 hc         1 PXO       0.054700
      7 H3A         -0.3610    -1.0040     0.1900 hc         1 PXO       0.054700
      8 H3B         -0.3610     0.3370    -0.9640 hc         1 PXO       0.054700
      9 H2           1.8920    -0.8840    -0.5110 hc         1 PXO       0.093200
     10 H2A          1.8920     0.8850    -0.5110 hc         1 PXO       0.093200
     11 H1           1.2540    -0.6530     1.0480 h4         1 PXO       0.278800
     12 HO1          3.9480    -2.4300     1.3140 ho         1 PXO       0.430000
@<TRIPOS>BOND
     1     1     2 1
     2     2     3 1
     3     3     4 2
     4     4     5 1
     5     1     6 1
     6     1     7 1
     7     1     8 1
     8     2     9 1
     9     2    10 1
    10     3    11 1
    11     5    12 1
@<TRIPOS>SUBSTRUCTURE
     1 PXO         1 TEMP              0 ****  ****    0 ROOT
