@<TRIPOS>MOLECULE
PXP
   26    26     1     0     0
SMALL
bcc


@<TRIPOS>ATOM
      1 N1         -0.0670   -0.0120   -0.0610 nb        1 PXP     -0.671000
      2 C2          1.2950   -0.0320   -0.0400 ca        1 PXP      0.306600
      3 C2A         2.0570   -0.0880   -1.3210 c3        1 PXP     -0.111400
      4 C3          2.0090    0.0140    1.1790 ca        1 PXP      0.013800
      5 O3          3.3880   -0.0110    1.0940 oh        1 PXP     -0.535100
      6 C4          1.3190    0.0920    2.4090 ca        1 PXP     -0.222300
      7 C4A         2.0680    0.1940    3.6960 c3        1 PXP      0.169700
      8 O4A         2.9820   -0.8850    3.8720 oh        1 PXP     -0.645800
      9 C5         -0.0800    0.0990    2.3810 ca        1 PXP     -0.080600
     10 C6         -0.7120    0.0450    1.1050 ca        1 PXP      0.377200
     11 C5A        -0.9160    0.1510    3.6220 c3        1 PXP      0.201700
     12 O4P        -2.2610    0.0710    3.3590 os        1 PXP     -0.558200
     13 P          -3.0960    0.0360    4.9120 p5        1 PXP      1.308900
     14 O1P        -2.6120    1.3370    5.4950 o         1 PXP     -0.927167
     15 O2P        -4.5370   -0.0510    4.5060 o         1 PXP     -0.927167
     16 O3P        -2.4670   -1.1930    5.5150 o         1 PXP     -0.927167
     17 H2A1        1.4340   -0.4780   -2.1620 hc        1 PXP      0.026700
     18 H2A2        2.4150    0.9370   -1.5890 hc        1 PXP      0.026700
     19 H2A3        2.9500   -0.7480   -1.1950 hc        1 PXP      0.026700
     20 HO3         3.7330   -0.2010    1.9790 ho        1 PXP      0.427000
     21 H4A1        2.7230    1.1090    3.6970 h1        1 PXP      0.065700
     22 H4A2        1.3650    0.2400    4.5720 h1        1 PXP      0.065700
     23 HOA4        2.4520   -1.6900    3.9150 ho        1 PXP      0.413000
     24 H6         -1.8230    0.0460    1.0880 h4        1 PXP      0.074100
     25 H5A1       -0.6990    1.1190    4.1710 h1        1 PXP      0.050200
     26 H5A2       -0.6160   -0.7090    4.3000 h1        1 PXP      0.050200
@<TRIPOS>BOND
     1    1    2 ar  
     2    1   10 ar  
     3    2    3 1   
     4    2    4 ar  
     5    3   17 1   
     6    3   18 1   
     7    3   19 1   
     8    4    5 1   
     9    4    6 ar  
    10    5   20 1   
    11    6    7 1   
    12    6    9 ar  
    13    7    8 1   
    14    7   21 1   
    15    7   22 1   
    16    8   23 1   
    17    9   10 ar  
    18    9   11 1   
    19   10   24 1   
    20   11   12 1   
    21   11   25 1   
    22   11   26 1   
    23   12   13 1   
    24   13   14 1   
    25   13   15 1   
    26   13   16 1   
@<TRIPOS>SUBSTRUCTURE
     1 PXP         1 TEMP              0 ****  ****    0 ROOT
