@<TRIPOS>MOLECULE
molecule
   26    26     1     0     0
SMALL
bcc


@<TRIPOS>ATOM
      1 N1           0.0000     0.0000     0.0000 nb         1 PXP      -0.706000
      2 C2           1.3180     0.0000     0.0000 ca         1 PXP       0.348600
      3 C2A          2.0640    -0.0080    -1.3100 c3         1 PXP      -0.124400
      4 C3           2.0260     0.0000     1.1910 ca         1 PXP      -0.026200
      5 O3           3.3860    -0.0010     1.1860 oh         1 PXP      -0.527100
      6 C4           1.3250     0.0120     2.3930 ca         1 PXP      -0.103300
      7 C4A          2.0550     0.0200     3.7120 c3         1 PXP       0.195700
      8 O4A          2.2850    -1.3250     4.1360 oh         1 PXP      -0.588800
      9 C5          -0.0590     0.0120     2.3490 ca         1 PXP      -0.122600
     10 C6          -0.6940     0.0050     1.1210 ca         1 PXP       0.434200
     11 C5A         -0.8630     0.0190     3.6220 c3         1 PXP       0.184700
     12 O4P         -2.2560     0.0170     3.3060 os         1 PXP      -0.541200
     13 P           -3.0510     0.0240     4.7070 p5         1 PXP       1.146900
     14 O1P         -2.6880     1.2360     5.4730 o          1 PXP      -0.904833
     15 O2P         -4.6360     0.0220     4.4240 o          1 PXP      -0.904833
     16 O3P         -2.6560    -1.2850     5.5540 o          1 PXP      -0.904833
     17 H2A1         2.7530    -0.8430    -1.3280 hc         1 PXP       0.032033
     18 H2A2         1.3580    -0.1030    -2.1260 hc         1 PXP       0.032033
     19 H2A3         2.6160     0.9180    -1.4160 hc         1 PXP       0.032033
     20 HO3          3.7000     0.8850     1.1230 ho         1 PXP       0.393000
     21 H4A1         1.4570     0.5350     4.4530 h1         1 PXP       0.027200
     22 H4A2         3.0040     0.5290     3.5960 h1         1 PXP       0.027200
     23 HOA4         2.8840    -1.3260     4.8650 ho         1 PXP       0.384000
     24 H6          -1.7760     0.0040     1.0800 h4         1 PXP       0.076100
     25 H5A1        -0.6240    -0.8620     4.2050 h1         1 PXP       0.070200
     26 H5A2        -0.6240     0.9070     4.1950 h1         1 PXP       0.070200
@<TRIPOS>BOND
     1     1     2 ar
     2     1    10 ar
     3     2     3 1
     4     2     4 ar
     5     3    17 1
     6     3    18 1
     7     3    19 1
     8     4     5 1
     9     4     6 ar
    10     5    20 1
    11     6     7 1
    12     6     9 ar
    13     7     8 1
    14     7    21 1
    15     7    22 1
    16     8    23 1
    17     9    10 ar
    18     9    11 1
    19    10    24 1
    20    11    12 1
    21    11    25 1
    22    11    26 1
    23    12    13 1
    24    13    14 1
    25    13    15 1
    26    13    16 1
@<TRIPOS>SUBSTRUCTURE
     1 PXP         1 TEMP              0 ****  ****    0 ROOT
