@<TRIPOS>MOLECULE
PXS
  107   106     1     0     0
SMALL
bcc


@<TRIPOS>ATOM
      1 C01         0.0840   -0.0290    0.3680 c3        1 PXS     -0.092100
      2 C02         1.5770   -0.2260    0.3850 c3        1 PXS     -0.080400
      3 C03         2.1660    0.1000    1.7420 c3        1 PXS     -0.079400
      4 C04         3.6660   -0.1000    1.7540 c3        1 PXS     -0.079400
      5 C05         4.2520    0.2260    3.1110 c3        1 PXS     -0.078400
      6 C06         5.7530    0.0260    3.1230 c3        1 PXS     -0.079400
      7 C07         6.3390    0.3510    4.4800 c3        1 PXS     -0.079400
      8 C08         7.8400    0.1510    4.4930 c3        1 PXS     -0.079400
      9 C09         8.4260    0.4730    5.8510 c3        1 PXS     -0.078400
     10 C10         9.9260    0.2720    5.8630 c3        1 PXS     -0.079400
     11 C11        10.5120    0.5900    7.2220 c3        1 PXS     -0.079400
     12 C12        12.0120    0.3870    7.2330 c3        1 PXS     -0.079400
     13 C13        12.5970    0.7000    8.5940 c3        1 PXS     -0.078400
     14 C14        14.0970    0.4990    8.6000 c3        1 PXS     -0.079400
     15 C15        14.6720    0.7900    9.9700 c3        1 PXS     -0.126400
     16 C16        16.1670    0.7250    9.9490 c         1 PXS      0.633100
     17 O17        16.6820    0.1360   11.0720 os        1 PXS     -0.435900
     18 C18        18.1120    0.0740   11.1670 c3        1 PXS      0.135400
     19 C19        18.4690   -0.3490   12.5920 c3        1 PXS      0.148100
     20 C20        17.6480   -1.5200   13.0870 c3        1 PXS     -0.114100
     21 O21        18.2260    0.8090   13.4150 os        1 PXS     -0.439900
     22 C22        18.9190    0.9110   14.5900 c         1 PXS      0.635100
     23 C23        18.5500    2.1400   15.3620 c3        1 PXS     -0.127400
     24 C24        19.7570    2.7230   16.0660 c3        1 PXS     -0.079400
     25 C25        19.3540    3.8770   16.9580 c3        1 PXS     -0.078400
     26 C26        20.5590    4.4740   17.6530 c3        1 PXS     -0.079400
     27 C27        20.1590    5.6240   18.5520 c3        1 PXS     -0.079400
     28 C28        21.3640    6.2200   19.2490 c3        1 PXS     -0.079400
     29 C29        20.9650    7.3690   20.1490 c3        1 PXS     -0.078400
     30 C30        22.1690    7.9620   20.8480 c3        1 PXS     -0.079400
     31 C31        21.7710    9.1110   21.7500 c3        1 PXS     -0.079400
     32 C32        22.9750    9.7030   22.4500 c3        1 PXS     -0.079400
     33 C33        22.5770   10.8510   23.3520 c3        1 PXS     -0.078400
     34 C34        23.7810   11.4420   24.0530 c3        1 PXS     -0.079400
     35 C35        23.3840   12.5910   24.9550 c3        1 PXS     -0.079400
     36 C36        24.5870   13.1830   25.6580 c3        1 PXS     -0.080400
     37 C37        24.1960   14.3270   26.5560 c3        1 PXS     -0.092100
     38 O38        19.7240    0.0250   14.8840 o         1 PXS     -0.546000
     39 O39        16.9520    1.1280    9.0880 o         1 PXS     -0.543000
     40 H01        -0.3290   -0.2750   -0.6400 hc        1 PXS      0.032700
     41 H01A       -0.1770    1.0310    0.6070 hc        1 PXS      0.032700
     42 H01B       -0.4100   -0.6890    1.1220 hc        1 PXS      0.032700
     43 H02         2.0530    0.4250   -0.3950 hc        1 PXS      0.038700
     44 H02A        1.8200   -1.2890    0.1190 hc        1 PXS      0.038700
     45 H03         1.6920   -0.5520    2.5220 hc        1 PXS      0.039700
     46 H03A        1.9250    1.1630    2.0090 hc        1 PXS      0.039700
     47 H04         4.1390    0.5520    0.9730 hc        1 PXS      0.039700
     48 H04A        3.9060   -1.1630    1.4860 hc        1 PXS      0.039700
     49 H05         3.7800   -0.4260    3.8920 hc        1 PXS      0.039700
     50 H05A        4.0120    1.2890    3.3790 hc        1 PXS      0.039700
     51 H06         6.2260    0.6800    2.3430 hc        1 PXS      0.039700
     52 H06A        5.9930   -1.0360    2.8540 hc        1 PXS      0.039700
     53 H07         5.8660   -0.3020    5.2610 hc        1 PXS      0.039700
     54 H07A        6.0990    1.4130    4.7500 hc        1 PXS      0.039700
     55 H08         8.0790   -0.9110    4.2220 hc        1 PXS      0.039700
     56 H08A        8.3130    0.8050    3.7140 hc        1 PXS      0.039700
     57 H09         7.9520   -0.1810    6.6290 hc        1 PXS      0.039700
     58 H09A        8.1870    1.5350    6.1210 hc        1 PXS      0.039700
     59 H10        10.1650   -0.7900    5.5890 hc        1 PXS      0.040200
     60 H10A       10.4000    0.9280    5.0860 hc        1 PXS      0.040200
     61 H11        10.0370   -0.0660    7.9990 hc        1 PXS      0.039700
     62 H11A       10.2730    1.6520    7.4950 hc        1 PXS      0.039700
     63 H12        12.4870    1.0460    6.4590 hc        1 PXS      0.042700
     64 H12A       12.2500   -0.6730    6.9560 hc        1 PXS      0.042700
     65 H13        12.3570    1.7610    8.8710 hc        1 PXS      0.041200
     66 H13A       12.1240    0.0400    9.3680 hc        1 PXS      0.041200
     67 H14        14.3390   -0.5560    8.3060 hc        1 PXS      0.057200
     68 H14A       14.5790    1.1730    7.8420 hc        1 PXS      0.057200
     69 H15        14.3880    1.8250   10.3020 hc        1 PXS      0.078700
     70 H15A       14.2730    0.0650   10.7280 hc        1 PXS      0.078700
     71 H18        18.5480    1.0780   10.9250 h1        1 PXS      0.064700
     72 H18A       18.4820   -0.6920   10.4380 h1        1 PXS      0.064700
     73 H19        19.5690   -0.5970   12.6230 h1        1 PXS      0.076700
     74 H20        17.7880   -2.3890   12.4020 hc        1 PXS      0.053367
     75 H20A       17.9800   -1.8030   14.1150 hc        1 PXS      0.053367
     76 H20B       16.5650   -1.2500   13.1130 hc        1 PXS      0.053367
     77 H23        17.7670    1.8410   16.1100 hc        1 PXS      0.078700
     78 H23A       18.0920    2.8970   14.6710 hc        1 PXS      0.078700
     79 H24        20.5030    3.0740   15.3050 hc        1 PXS      0.057700
     80 H24A       20.2570    1.9230   16.6740 hc        1 PXS      0.057700
     81 H25        18.6150    3.5220   17.7240 hc        1 PXS      0.041200
     82 H25A       18.8420    4.6670   16.3460 hc        1 PXS      0.041200
     83 H26        21.0720    3.6820   18.2600 hc        1 PXS      0.042700
     84 H26A       21.2960    4.8330   16.8870 hc        1 PXS      0.042700
     85 H27        19.4210    5.2650   19.3170 hc        1 PXS      0.039700
     86 H27A       19.6460    6.4160   17.9440 hc        1 PXS      0.039700
     87 H28        21.8770    5.4270   19.8550 hc        1 PXS      0.040700
     88 H28A       22.1010    6.5790   18.4840 hc        1 PXS      0.040700
     89 H29        20.2260    7.0100   20.9130 hc        1 PXS      0.039700
     90 H29A       20.4530    8.1620   19.5430 hc        1 PXS      0.039700
     91 H30        22.9080    8.3220   20.0840 hc        1 PXS      0.039700
     92 H30A       22.6810    7.1690   21.4540 hc        1 PXS      0.039700
     93 H31        21.0310    8.7520   22.5130 hc        1 PXS      0.039700
     94 H31A       21.2610    9.9050   21.1430 hc        1 PXS      0.039700
     95 H32        23.7150   10.0620   21.6870 hc        1 PXS      0.039700
     96 H32A       23.4860    8.9080   23.0560 hc        1 PXS      0.039700
     97 H33        22.0670   11.6460   22.7460 hc        1 PXS      0.039700
     98 H33A       21.8370   10.4920   24.1140 hc        1 PXS      0.039700
     99 H34        24.2910   10.6480   24.6600 hc        1 PXS      0.039700
    100 H34A       24.5220   11.8020   23.2910 hc        1 PXS      0.039700
    101 H35        22.6430   12.2320   25.7170 hc        1 PXS      0.039700
    102 H35A       22.8750   13.3860   24.3490 hc        1 PXS      0.039700
    103 H36        25.0960   12.3860   26.2620 hc        1 PXS      0.038700
    104 H36A       25.3280   13.5390   24.8940 hc        1 PXS      0.038700
    105 H37        23.7100   15.1420   25.9680 hc        1 PXS      0.032700
    106 H37A       23.4770   13.9850   27.3400 hc        1 PXS      0.032700
    107 H37B       25.0970   14.7480   27.0640 hc        1 PXS      0.032700
@<TRIPOS>BOND
     1    1    2 1   
     2    1   40 1   
     3    1   41 1   
     4    1   42 1   
     5    2    3 1   
     6    2   43 1   
     7    2   44 1   
     8    3    4 1   
     9    3   45 1   
    10    3   46 1   
    11    4    5 1   
    12    4   47 1   
    13    4   48 1   
    14    5    6 1   
    15    5   49 1   
    16    5   50 1   
    17    6    7 1   
    18    6   51 1   
    19    6   52 1   
    20    7    8 1   
    21    7   53 1   
    22    7   54 1   
    23    8    9 1   
    24    8   55 1   
    25    8   56 1   
    26    9   10 1   
    27    9   57 1   
    28    9   58 1   
    29   10   11 1   
    30   10   59 1   
    31   10   60 1   
    32   11   12 1   
    33   11   61 1   
    34   11   62 1   
    35   12   13 1   
    36   12   63 1   
    37   12   64 1   
    38   13   14 1   
    39   13   65 1   
    40   13   66 1   
    41   14   15 1   
    42   14   67 1   
    43   14   68 1   
    44   15   16 1   
    45   15   69 1   
    46   15   70 1   
    47   16   17 1   
    48   16   39 2   
    49   17   18 1   
    50   18   19 1   
    51   18   71 1   
    52   18   72 1   
    53   19   20 1   
    54   19   21 1   
    55   19   73 1   
    56   20   74 1   
    57   20   75 1   
    58   20   76 1   
    59   21   22 1   
    60   22   23 1   
    61   22   38 2   
    62   23   24 1   
    63   23   77 1   
    64   23   78 1   
    65   24   25 1   
    66   24   79 1   
    67   24   80 1   
    68   25   26 1   
    69   25   81 1   
    70   25   82 1   
    71   26   27 1   
    72   26   83 1   
    73   26   84 1   
    74   27   28 1   
    75   27   85 1   
    76   27   86 1   
    77   28   29 1   
    78   28   87 1   
    79   28   88 1   
    80   29   30 1   
    81   29   89 1   
    82   29   90 1   
    83   30   31 1   
    84   30   91 1   
    85   30   92 1   
    86   31   32 1   
    87   31   93 1   
    88   31   94 1   
    89   32   33 1   
    90   32   95 1   
    91   32   96 1   
    92   33   34 1   
    93   33   97 1   
    94   33   98 1   
    95   34   35 1   
    96   34   99 1   
    97   34  100 1   
    98   35   36 1   
    99   35  101 1   
   100   35  102 1   
   101   36   37 1   
   102   36  103 1   
   103   36  104 1   
   104   37  105 1   
   105   37  106 1   
   106   37  107 1   
@<TRIPOS>SUBSTRUCTURE
     1 PXS         1 TEMP              0 ****  ****    0 ROOT
