@<TRIPOS>MOLECULE
molecule
  107   106     1     0     0
SMALL
bcc


@<TRIPOS>ATOM
      1 C01          0.0000     0.0000     0.0000 c3         1 PXS      -0.092100
      2 C02          1.5300     0.0000     0.0000 c3         1 PXS      -0.084400
      3 C03          2.0400     0.0000     1.4430 c3         1 PXS      -0.081400
      4 C04          3.5700    -0.0010     1.4440 c3         1 PXS      -0.082400
      5 C05          4.0800    -0.0000     2.8860 c3         1 PXS      -0.081400
      6 C06          5.6100    -0.0010     2.8860 c3         1 PXS      -0.082400
      7 C07          6.1190    -0.0010     4.3290 c3         1 PXS      -0.082400
      8 C08          7.6500    -0.0010     4.3290 c3         1 PXS      -0.082400
      9 C09          8.1590    -0.0000     5.7710 c3         1 PXS      -0.081400
     10 C10          9.6890    -0.0000     5.7710 c3         1 PXS      -0.081400
     11 C11         10.1990    -0.0000     7.2140 c3         1 PXS      -0.082400
     12 C12         11.7290    -0.0010     7.2150 c3         1 PXS      -0.080400
     13 C13         12.2390    -0.0000     8.6570 c3         1 PXS      -0.083400
     14 C14         13.7680    -0.0010     8.6570 c3         1 PXS      -0.072400
     15 C15         14.2780     0.0000    10.0990 c3         1 PXS      -0.125400
     16 C16         15.7860    -0.0010    10.1000 c          1 PXS       0.629100
     17 O17         16.4560    -0.0000    11.2630 os         1 PXS      -0.422900
     18 C18         17.9060    -0.0010    11.1870 c3         1 PXS       0.149400
     19 C19         18.4910    -0.0000    12.6000 c3         1 PXS       0.147100
     20 C20         17.9220    -1.1820    13.3890 c3         1 PXS      -0.111100
     21 O21         18.1420     1.2400    13.2690 os         1 PXS      -0.419900
     22 C22         19.0040     1.7020    14.1880 c          1 PXS       0.630100
     23 C23         18.7080     2.9830    14.9230 c3         1 PXS      -0.126400
     24 C24         19.8410     3.2810    15.9070 c3         1 PXS      -0.072400
     25 C25         19.5420     4.5830    16.6530 c3         1 PXS      -0.084400
     26 C26         20.6750     4.8800    17.6360 c3         1 PXS      -0.080400
     27 C27         20.3750     6.1810    18.3830 c3         1 PXS      -0.082400
     28 C28         21.5070     6.4780    19.3660 c3         1 PXS      -0.081400
     29 C29         21.2080     7.7810    20.1120 c3         1 PXS      -0.082400
     30 C30         22.3400     8.0770    21.0960 c3         1 PXS      -0.082400
     31 C31         22.0410     9.3800    21.8420 c3         1 PXS      -0.081400
     32 C32         23.1740     9.6760    22.8260 c3         1 PXS      -0.082400
     33 C33         22.8740    10.9780    23.5720 c3         1 PXS      -0.082400
     34 C34         24.0070    11.2750    24.5570 c3         1 PXS      -0.082400
     35 C35         23.7070    12.5770    25.3020 c3         1 PXS      -0.081400
     36 C36         24.8400    12.8740    26.2850 c3         1 PXS      -0.084400
     37 C37         24.5400    14.1750    27.0320 c3         1 PXS      -0.092100
     38 O38         20.0170     1.0880    14.4280 o          1 PXS      -0.555000
     39 O39         16.3900    -0.0010     9.0540 o          1 PXS      -0.552000
     40 H01         -0.3610     0.8820     0.5150 hc         1 PXS       0.032367
     41 H01A        -0.3610    -0.8870     0.5060 hc         1 PXS       0.032367
     42 H01B        -0.3610     0.0050    -1.0210 hc         1 PXS       0.032367
     43 H02          1.8910     0.8850    -0.5110 hc         1 PXS       0.039700
     44 H02A         1.8910    -0.8850    -0.5110 hc         1 PXS       0.039700
     45 H03          1.6790    -0.8840     1.9540 hc         1 PXS       0.040700
     46 H03A         1.6790     0.8850     1.9530 hc         1 PXS       0.040700
     47 H04          3.9310    -0.8850     0.9330 hc         1 PXS       0.040700
     48 H04A         3.9310     0.8840     0.9320 hc         1 PXS       0.040700
     49 H05          3.7190     0.8850     3.3960 hc         1 PXS       0.040700
     50 H05A         3.7190    -0.8840     3.3970 hc         1 PXS       0.040700
     51 H06          5.9720     0.8840     2.3760 hc         1 PXS       0.041200
     52 H06A         5.9710    -0.8850     2.3760 hc         1 PXS       0.041200
     53 H07          5.7580    -0.8860     4.8390 hc         1 PXS       0.040700
     54 H07A         5.7580     0.8840     4.8390 hc         1 PXS       0.040700
     55 H08          8.0110     0.8830     3.8170 hc         1 PXS       0.041700
     56 H08A         8.0110    -0.8860     3.8180 hc         1 PXS       0.041700
     57 H09          7.7980    -0.8840     6.2830 hc         1 PXS       0.040700
     58 H09A         7.7980     0.8850     6.2820 hc         1 PXS       0.040700
     59 H10         10.0500     0.8840     5.2610 hc         1 PXS       0.041700
     60 H10A        10.0500    -0.8850     5.2610 hc         1 PXS       0.041700
     61 H11          9.8380    -0.8840     7.7250 hc         1 PXS       0.040700
     62 H11A         9.8380     0.8850     7.7250 hc         1 PXS       0.040700
     63 H12         12.0900     0.8830     6.7040 hc         1 PXS       0.043700
     64 H12A        12.0900    -0.8850     6.7050 hc         1 PXS       0.043700
     65 H13         11.8780    -0.8840     9.1680 hc         1 PXS       0.040700
     66 H13A        11.8790     0.8850     9.1670 hc         1 PXS       0.040700
     67 H14         14.1300     0.8830     8.1460 hc         1 PXS       0.058700
     68 H14A        14.1290    -0.8860     8.1470 hc         1 PXS       0.058700
     69 H15         13.9180     0.8860    10.6090 hc         1 PXS       0.071700
     70 H15A        13.9160    -0.8830    10.6110 hc         1 PXS       0.071700
     71 H18         18.2410     0.8830    10.6580 h1         1 PXS       0.061700
     72 H18A        18.2400    -0.8860    10.6590 h1         1 PXS       0.061700
     73 H19         19.5690    -0.0890    12.5450 h1         1 PXS       0.082700
     74 H20         16.9040    -0.9600    13.6860 hc         1 PXS       0.051700
     75 H20A        17.9310    -2.0690    12.7670 hc         1 PXS       0.051700
     76 H20B        18.5270    -1.3520    14.2710 hc         1 PXS       0.051700
     77 H23         18.6250     3.7960    14.2110 hc         1 PXS       0.072200
     78 H23A        17.7760     2.8820    15.4650 hc         1 PXS       0.072200
     79 H24         19.9230     2.4680    16.6190 hc         1 PXS       0.058700
     80 H24A        20.7730     3.3820    15.3650 hc         1 PXS       0.058700
     81 H25         18.6100     4.4820    17.1950 hc         1 PXS       0.040700
     82 H25A        19.4590     5.3960    15.9410 hc         1 PXS       0.040700
     83 H26         20.7570     4.0660    18.3470 hc         1 PXS       0.044200
     84 H26A        21.6070     4.9810    17.0940 hc         1 PXS       0.044200
     85 H27         20.2920     6.9940    17.6720 hc         1 PXS       0.040700
     86 H27A        19.4430     6.0800    18.9250 hc         1 PXS       0.040700
     87 H28         21.5900     5.6660    20.0780 hc         1 PXS       0.041700
     88 H28A        22.4390     6.5790    18.8240 hc         1 PXS       0.041700
     89 H29         20.2750     7.6800    20.6540 hc         1 PXS       0.040700
     90 H29A        21.1260     8.5940    19.4010 hc         1 PXS       0.040700
     91 H30         22.4220     7.2640    21.8080 hc         1 PXS       0.041700
     92 H30A        23.2730     8.1770    20.5540 hc         1 PXS       0.041700
     93 H31         21.1080     9.2790    22.3850 hc         1 PXS       0.040700
     94 H31A        21.9580    10.1920    21.1310 hc         1 PXS       0.040700
     95 H32         23.2570     8.8630    23.5380 hc         1 PXS       0.040700
     96 H32A        24.1060     9.7780    22.2840 hc         1 PXS       0.040700
     97 H33         21.9420    10.8760    24.1150 hc         1 PXS       0.040700
     98 H33A        22.7910    11.7900    22.8610 hc         1 PXS       0.040700
     99 H34         24.0890    10.4630    25.2680 hc         1 PXS       0.040700
    100 H34A        24.9390    11.3760    24.0140 hc         1 PXS       0.040700
    101 H35         23.6240    13.3900    24.5900 hc         1 PXS       0.040700
    102 H35A        22.7750    12.4760    25.8440 hc         1 PXS       0.040700
    103 H36         25.7720    12.9750    25.7420 hc         1 PXS       0.039700
    104 H36A        24.9230    12.0600    26.9960 hc         1 PXS       0.039700
    105 H37         25.3540    14.3980    27.7100 hc         1 PXS       0.032367
    106 H37A        23.6210    14.0650    27.5940 hc         1 PXS       0.032367
    107 H37B        24.4330    14.9840    26.3190 hc         1 PXS       0.032367
@<TRIPOS>BOND
     1     1     2 1
     2     2     3 1
     3     3     4 1
     4     4     5 1
     5     5     6 1
     6     6     7 1
     7     7     8 1
     8     8     9 1
     9     9    10 1
    10    10    11 1
    11    11    12 1
    12    12    13 1
    13    13    14 1
    14    14    15 1
    15    15    16 1
    16    16    17 1
    17    16    39 2
    18    17    18 1
    19    18    19 1
    20    19    20 1
    21    19    21 1
    22    21    22 1
    23    22    23 1
    24    22    38 2
    25    23    24 1
    26    24    25 1
    27    25    26 1
    28    26    27 1
    29    27    28 1
    30    28    29 1
    31    29    30 1
    32    30    31 1
    33    31    32 1
    34    32    33 1
    35    33    34 1
    36    34    35 1
    37    35    36 1
    38    36    37 1
    39     1    40 1
    40     1    41 1
    41     1    42 1
    42     2    43 1
    43     2    44 1
    44     3    45 1
    45     3    46 1
    46     4    47 1
    47     4    48 1
    48     5    49 1
    49     5    50 1
    50     6    51 1
    51     6    52 1
    52     7    53 1
    53     7    54 1
    54     8    55 1
    55     8    56 1
    56     9    57 1
    57     9    58 1
    58    10    59 1
    59    10    60 1
    60    11    61 1
    61    11    62 1
    62    12    63 1
    63    12    64 1
    64    13    65 1
    65    13    66 1
    66    14    67 1
    67    14    68 1
    68    15    69 1
    69    15    70 1
    70    18    71 1
    71    18    72 1
    72    19    73 1
    73    20    74 1
    74    20    75 1
    75    20    76 1
    76    23    77 1
    77    23    78 1
    78    24    79 1
    79    24    80 1
    80    25    81 1
    81    25    82 1
    82    26    83 1
    83    26    84 1
    84    27    85 1
    85    27    86 1
    86    28    87 1
    87    28    88 1
    88    29    89 1
    89    29    90 1
    90    30    91 1
    91    30    92 1
    92    31    93 1
    93    31    94 1
    94    32    95 1
    95    32    96 1
    96    33    97 1
    97    33    98 1
    98    34    99 1
    99    34   100 1
   100    35   101 1
   101    35   102 1
   102    36   103 1
   103    36   104 1
   104    37   105 1
   105    37   106 1
   106    37   107 1
@<TRIPOS>SUBSTRUCTURE
     1 PXS         1 TEMP              0 ****  ****    0 ROOT
