@<TRIPOS>MOLECULE
PXX
   29    31     1     0     0
SMALL
bcc


@<TRIPOS>ATOM
      1 CAA          0.0000     0.0000     0.0000 c3         1 PXX      -0.067100
      2 CAM          1.5070     0.0000     0.0000 c          1 PXX       0.558100
      3 OAB          2.1130     0.0000     1.0510 o          1 PXX      -0.632100
      4 NAL          2.1820     0.0020    -1.1670 ns         1 PXX      -0.034100
      5 CAN          3.5750     0.0990    -1.1680 ca         1 PXX      -0.093400
      6 CAP          4.2500     0.8380    -2.2320 ca         1 PXX      -0.142300
      7 CAH          3.5250     1.4580    -3.2600 ca         1 PXX      -0.079000
      8 CAD          4.2220     2.1350    -4.2250 ca         1 PXX      -0.211300
      9 CAF          5.6100     2.1910    -4.1640 ca         1 PXX       0.398200
     10 NAK          6.2800     1.6060    -3.1970 nb         1 PXX      -0.525000
     11 CAR          5.6580     0.9350    -2.2320 ca         1 PXX       0.340300
     12 CAQ          6.4080     0.2840    -1.1510 ca         1 PXX       0.317300
     13 NAJ          7.7370     0.3480    -1.1100 nb         1 PXX      -0.533000
     14 CAE          8.4220    -0.2300    -0.1500 ca         1 PXX       0.397200
     15 CAC          7.7910    -0.9370     0.8670 ca         1 PXX      -0.216300
     16 CAG          6.4270    -1.0390     0.8810 ca         1 PXX      -0.059000
     17 CAO          5.7000    -0.4170    -0.1500 ca         1 PXX      -0.128300
     18 CAI          4.2920    -0.4910    -0.1780 ca         1 PXX      -0.091000
     19 HAA         -0.3610    -0.2880     0.9800 hc         1 PXX       0.024700
     20 HAAA        -0.3610     0.9930    -0.2410 hc         1 PXX       0.024700
     21 HAAB        -0.3610    -0.7050    -0.7390 hc         1 PXX       0.024700
     22 HNAL         1.6880    -0.1130    -2.0310 hn         1 PXX       0.170500
     23 HAH          2.4440     1.4030    -3.2910 ha         1 PXX       0.105000
     24 HAD          3.6940     2.6260    -5.0340 ha         1 PXX       0.112000
     25 HAF          6.1520     2.7290    -4.9320 h4         1 PXX      -0.018900
     26 HAE          9.5030    -0.1550    -0.1520 h4         1 PXX      -0.020900
     27 HAC          8.3780    -1.4050     1.6480 ha         1 PXX       0.111000
     28 HAG          5.9200    -1.5860     1.6670 ha         1 PXX       0.115000
     29 HAI          3.7730    -1.0310     0.6050 ha         1 PXX       0.152000
@<TRIPOS>BOND
     1     1     2 1   
     2     1    19 1   
     3     1    20 1   
     4     1    21 1   
     5     2     3 2   
     6     2     4 1   
     7     4     5 1   
     8     4    22 1   
     9     5     6 ar  
    10     5    18 ar  
    11     6     7 ar  
    12     6    11 ar  
    13     7     8 ar  
    14     7    23 1   
    15     8     9 ar  
    16     8    24 1   
    17     9    10 ar  
    18     9    25 1   
    19    10    11 ar  
    20    11    12 ar  
    21    12    13 ar  
    22    12    17 ar  
    23    13    14 ar  
    24    14    15 ar  
    25    14    26 1   
    26    15    16 ar  
    27    15    27 1   
    28    16    17 ar  
    29    16    28 1   
    30    17    18 ar  
    31    18    29 1   
@<TRIPOS>SUBSTRUCTURE
     1 PXX         1 TEMP              0 ****  ****    0 ROOT
