@<TRIPOS>MOLECULE
molecule
   29    31     1     0     0
SMALL
bcc


@<TRIPOS>ATOM
      1 CAA          0.0000     0.0000     0.0000 c3         1 PXX      -0.169100
      2 CAM          1.5070     0.0000     0.0000 c          1 PXX       0.656100
      3 OAB          2.1130     0.0000     1.0510 o          1 PXX      -0.591100
      4 NAL          2.1820     0.0020    -1.1670 ns         1 PXX      -0.477100
      5 CAN          3.5750     0.0990    -1.1680 ca         1 PXX       0.049600
      6 CAP          4.2500     0.8380    -2.2320 ca         1 PXX      -0.155300
      7 CAH          3.5250     1.4580    -3.2600 ca         1 PXX      -0.091000
      8 CAD          4.2220     2.1350    -4.2250 ca         1 PXX      -0.249300
      9 CAF          5.6100     2.1910    -4.1640 ca         1 PXX       0.423200
     10 NAK          6.2800     1.6060    -3.1970 nb         1 PXX      -0.640000
     11 CAR          5.6580     0.9350    -2.2320 ca         1 PXX       0.392300
     12 CAQ          6.4080     0.2840    -1.1510 ca         1 PXX       0.367300
     13 NAJ          7.7370     0.3480    -1.1100 nb         1 PXX      -0.646000
     14 CAE          8.4220    -0.2300    -0.1500 ca         1 PXX       0.419200
     15 CAC          7.7910    -0.9370     0.8670 ca         1 PXX      -0.249300
     16 CAG          6.4270    -1.0390     0.8810 ca         1 PXX      -0.082000
     17 CAO          5.7000    -0.4170    -0.1500 ca         1 PXX      -0.133300
     18 CAI          4.2920    -0.4910    -0.1780 ca         1 PXX      -0.119000
     19 HAA         -0.3610    -0.2880     0.9800 hc         1 PXX       0.064033
     20 HAAA        -0.3610     0.9930    -0.2410 hc         1 PXX       0.064033
     21 HAAB        -0.3610    -0.7050    -0.7390 hc         1 PXX       0.064033
     22 HNAL         1.6880    -0.1130    -2.0310 hn         1 PXX       0.324500
     23 HAH          2.4440     1.4030    -3.2910 ha         1 PXX       0.132000
     24 HAD          3.6940     2.6260    -5.0340 ha         1 PXX       0.138000
     25 HAF          6.1520     2.7290    -4.9320 h4         1 PXX       0.027100
     26 HAE          9.5030    -0.1550    -0.1520 h4         1 PXX       0.025100
     27 HAC          8.3780    -1.4050     1.6480 ha         1 PXX       0.138000
     28 HAG          5.9200    -1.5860     1.6670 ha         1 PXX       0.145000
     29 HAI          3.7730    -1.0310     0.6050 ha         1 PXX       0.171000
@<TRIPOS>BOND
     1     1     2 1
     2     2     3 2
     3     2     4 1
     4     4     5 1
     5     5     6 ar
     6     5    18 ar
     7     6     7 ar
     8     6    11 ar
     9     7     8 ar
    10     8     9 ar
    11     9    10 ar
    12    10    11 ar
    13    11    12 ar
    14    12    13 ar
    15    12    17 ar
    16    13    14 ar
    17    14    15 ar
    18    15    16 ar
    19    16    17 ar
    20    17    18 ar
    21     1    19 1
    22     1    20 1
    23     1    21 1
    24     4    22 1
    25     7    23 1
    26     8    24 1
    27     9    25 1
    28    14    26 1
    29    15    27 1
    30    16    28 1
    31    18    29 1
@<TRIPOS>SUBSTRUCTURE
     1 PXX         1 TEMP              0 ****  ****    0 ROOT
