@<TRIPOS>MOLECULE
PXY
   18    18     1     0     0
SMALL
bcc


@<TRIPOS>ATOM
      1 C1         -0.0120   -0.0090   -0.0210 ca        1 PXY     -0.082300
      2 C2          1.3880   -0.0110   -0.0090 ca        1 PXY     -0.127000
      3 C3          2.0840   -0.0110    1.1970 ca        1 PXY     -0.127000
      4 C4          1.3940   -0.0080    2.4150 ca        1 PXY     -0.082300
      5 C5         -0.0060   -0.0080    2.4030 ca        1 PXY     -0.127000
      6 C6         -0.7020   -0.0080    1.1970 ca        1 PXY     -0.127000
      7 C1'        -0.7520    0.0070   -1.3030 c3        1 PXY     -0.052800
      8 C4'         2.1340    0.0080    3.6970 c3        1 PXY     -0.052800
      9 H2          1.9400   -0.0150   -0.9600 ha        1 PXY      0.130000
     10 H3          3.1840   -0.0150    1.1940 ha        1 PXY      0.130000
     11 H5         -0.5590   -0.0090    3.3540 ha        1 PXY      0.130000
     12 H6         -1.8020   -0.0100    1.2000 ha        1 PXY      0.130000
     13 H1'1       -0.1710   -0.5070   -2.1070 hc        1 PXY      0.043033
     14 H1'2       -0.9360    1.0630   -1.6250 hc        1 PXY      0.043033
     15 H1'3       -1.7410   -0.5040   -1.2010 hc        1 PXY      0.043033
     16 H4'1        3.1220   -0.5050    3.5950 hc        1 PXY      0.043033
     17 H4'2        2.3200    1.0640    4.0170 hc        1 PXY      0.043033
     18 H4'3        1.5520   -0.5040    4.5020 hc        1 PXY      0.043033
@<TRIPOS>BOND
     1    1    2 ar  
     2    1    6 ar  
     3    1    7 1   
     4    2    3 ar  
     5    2    9 1   
     6    3    4 ar  
     7    3   10 1   
     8    4    5 ar  
     9    4    8 1   
    10    5    6 ar  
    11    5   11 1   
    12    6   12 1   
    13    7   13 1   
    14    7   14 1   
    15    7   15 1   
    16    8   16 1   
    17    8   17 1   
    18    8   18 1   
@<TRIPOS>SUBSTRUCTURE
     1 PXY         1 TEMP              0 ****  ****    0 ROOT
