@<TRIPOS>MOLECULE
molecule
   18    18     1     0     0
SMALL
bcc


@<TRIPOS>ATOM
      1 C1           0.0000     0.0000     0.0000 ca         1 PXY      -0.087800
      2 C2           1.3820     0.0000     0.0000 ca         1 PXY      -0.124500
      3 C3           2.0730     0.0000     1.1970 ca         1 PXY      -0.124500
      4 C4           1.3820     0.0010     2.3940 ca         1 PXY      -0.087800
      5 C5          -0.0000     0.0020     2.3940 ca         1 PXY      -0.124500
      6 C6          -0.6910     0.0040     1.1970 ca         1 PXY      -0.124500
      7 C1'         -0.7530    -0.0000    -1.3050 c3         1 PXY      -0.046800
      8 C4'          2.1350     0.0010     3.6990 c3         1 PXY      -0.046800
      9 H2           1.9240    -0.0020    -0.9380 ha         1 PXY       0.129000
     10 H3           3.1560    -0.0000     1.1970 ha         1 PXY       0.129000
     11 H5          -0.5420     0.0040     3.3320 ha         1 PXY       0.129000
     12 H6          -1.7750     0.0040     1.1970 ha         1 PXY       0.129000
     13 H1'1        -0.0800    -0.2640    -2.1110 hc         1 PXY       0.042200
     14 H1'2        -1.1630     0.9860    -1.4860 hc         1 PXY       0.042200
     15 H1'3        -1.5590    -0.7220    -1.2570 hc         1 PXY       0.042200
     16 H4'1         2.0750    -0.9820     4.1500 hc         1 PXY       0.042200
     17 H4'2         3.1730     0.2520     3.5170 hc         1 PXY       0.042200
     18 H4'3         1.6990     0.7330     4.3680 hc         1 PXY       0.042200
@<TRIPOS>BOND
     1     1     2 ar
     2     1     6 ar
     3     1     7 1
     4     2     3 ar
     5     2     9 1
     6     3     4 ar
     7     3    10 1
     8     4     5 ar
     9     4     8 1
    10     5     6 ar
    11     5    11 1
    12     6    12 1
    13     7    13 1
    14     7    14 1
    15     7    15 1
    16     8    16 1
    17     8    17 1
    18     8    18 1
@<TRIPOS>SUBSTRUCTURE
     1 PXY         1 TEMP              0 ****  ****    0 ROOT
