@<TRIPOS>MOLECULE
PXZ
   34    36     1     0     0
SMALL
bcc


@<TRIPOS>ATOM
      1 C1          0.0210   -0.0960    0.0030 cc        1 PXZ     -0.415000
      2 C          -0.7320   -0.2520   -1.2560 c         1 PXZ      0.592100
      3 O          -1.5510   -1.1410   -1.4760 o         1 PXZ     -0.498100
      4 C2          1.3970   -0.0130   -0.0060 cd        1 PXZ      0.158800
      5 N2          2.1410   -0.1440   -1.1440 nh        1 PXZ     -0.842600
      6 C3          2.1680    0.1890    1.2810 c         1 PXZ      0.574500
      7 O3          3.3830    0.4300    1.2480 o         1 PXZ     -0.524100
      8 C4          1.4100    0.0940    2.5270 cd        1 PXZ     -0.221400
      9 O5         -0.5950   -0.0820    3.7120 os        1 PXZ     -0.373800
     10 C6         -2.6130   -0.0300    4.9510 ca        1 PXZ     -0.113600
     11 C7         -4.0050    0.0330    4.9790 ca        1 PXZ     -0.117000
     12 C8         -4.7450    0.0890    3.7960 ca        1 PXZ     -0.088000
     13 C9         -4.1260    0.0770    2.5480 ca        1 PXZ     -0.200900
     14 C'         -4.9550    0.1130    1.3240 c         1 PXZ      0.578500
     15 O'         -6.1590    0.3830    1.3590 o         1 PXZ     -0.533100
     16 N10        -2.0500    0.0030    1.2370 nd        1 PXZ     -0.624000
     17 C11        -0.7390   -0.0360    1.2450 cc        1 PXZ      0.450800
     18 C12         0.0550   -0.0120    2.4900 cc        1 PXZ      0.208400
     19 C13        -1.9850   -0.0290    3.6900 ca        1 PXZ      0.213700
     20 C14        -2.7090    0.0190    2.4740 ca        1 PXZ      0.302300
     21 C15         2.1700    0.1230    3.7970 c3        1 PXZ     -0.042900
     22 C16        -1.8110   -0.1020    6.1910 c3        1 PXZ     -0.055800
     23 H          -0.4990    0.5210   -2.0280 h4        1 PXZ     -0.012800
     24 HN21        3.1190    0.0190   -1.0970 hn        1 PXZ      0.446300
     25 HN22        1.7020   -0.2010   -2.0280 hn        1 PXZ      0.446300
     26 H7         -4.5270    0.0410    5.9490 ha        1 PXZ      0.148000
     27 H8         -5.8470    0.1450    3.8380 ha        1 PXZ      0.164000
     28 H'         -4.4420   -0.1260    0.3660 h4        1 PXZ      0.041200
     29 H151        3.1400    0.6630    3.6640 hc        1 PXZ      0.056033
     30 H152        1.5750    0.6300    4.5980 hc        1 PXZ      0.056033
     31 H153        2.3890   -0.9220    4.1330 hc        1 PXZ      0.056033
     32 H161       -2.4220    0.1760    7.0840 hc        1 PXZ      0.056033
     33 H162       -1.4230   -1.1430    6.3320 hc        1 PXZ      0.056033
     34 H163       -0.9310    0.5870    6.1260 hc        1 PXZ      0.056033
@<TRIPOS>BOND
     1    1    2 1
     2    1    4 2
     3    1   17 1
     4    2    3 2
     5    2   23 1
     6    4    5 1
     7    4    6 1
     8    5   24 1
     9    5   25 1
    10    6    7 2
    11    6    8 1
    12    8   18 2
    13    8   21 1
    14    9   18 1
    15    9   19 1
    16   10   11 ar
    17   10   19 ar
    18   10   22 1
    19   11   12 ar
    20   11   26 1
    21   12   13 ar
    22   12   27 1
    23   13   14 1
    24   13   20 ar
    25   14   15 2
    26   14   28 1
    27   16   17 2
    28   16   20 1
    29   17   18 1
    30   19   20 ar
    31   21   29 1
    32   21   30 1
    33   21   31 1
    34   22   32 1
    35   22   33 1
    36   22   34 1
@<TRIPOS>SUBSTRUCTURE
     1 PXZ         1 TEMP              0 ****  ****    0 ROOT
