@<TRIPOS>MOLECULE
PY0
   16    15     1     0     0
SMALL
bcc


@<TRIPOS>ATOM
      1 C3           0.0000     0.0000     0.0000 c3         1 PY0      -0.011100
      2 C2           1.5300     0.0000     0.0000 c3         1 PY0       0.188100
      3 O3           2.0060     0.0000     1.3470 oh         1 PY0      -0.579800
      4 C1           2.0390     1.2490    -0.7210 c3         1 PY0       0.502500
      5 O1           1.5630     1.2500    -2.0690 oh         1 PY0      -0.630800
      6 O2           1.5630     2.4160    -0.0470 o          1 PY0      -0.861500
      7 N            3.5090     1.2490    -0.7210 nz         1 PY0      -0.078600
      8 H31C        -0.3610    -0.0810     1.0180 hc         1 PY0       0.019700
      9 H32C        -0.3610    -0.8410    -0.5790 hc         1 PY0       0.019700
     10 H33C        -0.3610     0.9220    -0.4390 hc         1 PY0       0.019700
     11 H2           1.8910    -0.8840    -0.5110 h1         1 PY0      -0.029300
     12 H3           2.0710    -0.8880     1.6570 ho         1 PY0       0.381000
     13 H1           1.5900     2.1280    -2.4120 ho         1 PY0       0.415000
     14 HN1          3.8420     0.4340    -1.1960 hn         1 PY0       0.214800
     15 HN2          3.8420     2.0680    -1.1900 hn         1 PY0       0.214800
     16 HN3          3.8420     1.2460     0.2220 hn         1 PY0       0.214800
@<TRIPOS>BOND
     1     1     2 1   
     2     1     8 1   
     3     1     9 1   
     4     1    10 1   
     5     2     3 1   
     6     2     4 1   
     7     2    11 1   
     8     3    12 1   
     9     4     5 1   
    10     4     6 1   
    11     4     7 1   
    12     5    13 1   
    13     7    14 1   
    14     7    15 1   
    15     7    16 1   
@<TRIPOS>SUBSTRUCTURE
     1 PY0         1 TEMP              0 ****  ****    0 ROOT
