@<TRIPOS>MOLECULE
molecule
   33    36     1     0     0
SMALL
bcc


@<TRIPOS>ATOM
      1 C1           0.0000     0.0000     0.0000 cc         1 PY1      -0.241300
      2 C2           1.4640     0.0000     0.0000 cc         1 PY1       0.304300
      3 N3           1.8480     0.0000     1.2580 nd         1 PY1      -0.496800
      4 N4           0.7140    -0.0080     2.0760 na         1 PY1      -0.041600
      5 C5          -0.3920    -0.0050     1.3090 cd         1 PY1      -0.097300
      6 C8          -0.8830     0.0050    -1.1850 ca         1 PY1       0.059000
      7 C10          2.3450     0.0030    -1.1910 ca         1 PY1       0.397300
      8 N12          1.9360    -0.5720    -2.3130 nb         1 PY1      -0.674000
      9 C13          2.6880    -0.5850    -3.3970 ca         1 PY1       0.423200
     10 C14          3.9420    -0.0050    -3.3970 ca         1 PY1      -0.249300
     11 C15          4.4110     0.6040    -2.2410 ca         1 PY1      -0.097000
     12 C16          3.5990     0.6080    -1.1200 ca         1 PY1      -0.220300
     13 C21         -0.8290    -1.0380    -2.1440 ca         1 PY1      -0.131300
     14 C22         -1.7000    -0.9890    -3.2570 ca         1 PY1       0.421600
     15 N23         -2.5460     0.0360    -3.4000 nb         1 PY1      -0.689000
     16 C24         -2.6030     1.0120    -2.5250 ca         1 PY1       0.428200
     17 C25         -1.7890     1.0380    -1.4010 ca         1 PY1      -0.263300
     18 C28          0.0500    -2.1180    -1.9960 ca         1 PY1      -0.040000
     19 C29          0.0670    -3.1050    -2.9350 ca         1 PY1      -0.160000
     20 C30         -0.7840    -3.0570    -4.0360 ca         1 PY1      -0.113000
     21 C31         -1.6550    -2.0260    -4.2060 ca         1 PY1      -0.185300
     22 HN4          0.7240    -0.0110     3.0760 hn         1 PY1       0.333700
     23 H5          -1.4140    -0.0080     1.6680 h4         1 PY1       0.180000
     24 H13          2.3200    -1.0630    -4.2960 h4         1 PY1       0.030100
     25 H14          4.5530    -0.0240    -4.2920 ha         1 PY1       0.139000
     26 H15          5.3900     1.0660    -2.2170 ha         1 PY1       0.140000
     27 H16          3.9340     1.0750    -0.2020 ha         1 PY1       0.152000
     28 H24         -3.3060     1.8210    -2.6850 h4         1 PY1       0.018100
     29 H25         -1.8590     1.8580    -0.6960 ha         1 PY1       0.135000
     30 H28          0.7160    -2.1650    -1.1430 ha         1 PY1       0.141000
     31 H29          0.7520    -3.9380    -2.8240 ha         1 PY1       0.126000
     32 H30         -0.7520    -3.8540    -4.7700 ha         1 PY1       0.126000
     33 H31         -2.3110    -2.0030    -5.0690 ha         1 PY1       0.144000
@<TRIPOS>BOND
     1     1     2 1
     2     1     5 2
     3     1     6 1
     4     2     3 2
     5     2     7 1
     6     3     4 1
     7     4     5 1
     8     4    22 1
     9     5    23 1
    10     6    13 ar
    11     6    17 ar
    12     7     8 ar
    13     7    12 ar
    14     8     9 ar
    15     9    10 ar
    16     9    24 1
    17    10    11 ar
    18    10    25 1
    19    11    12 ar
    20    11    26 1
    21    12    27 1
    22    13    14 ar
    23    13    18 ar
    24    14    15 ar
    25    14    21 ar
    26    15    16 ar
    27    16    17 ar
    28    16    28 1
    29    17    29 1
    30    18    19 ar
    31    18    30 1
    32    19    20 ar
    33    19    31 1
    34    20    21 ar
    35    20    32 1
    36    21    33 1
@<TRIPOS>SUBSTRUCTURE
     1 PY1         1 TEMP              0 ****  ****    0 ROOT
