@<TRIPOS>MOLECULE
PY1
   33    36     1     0     0
SMALL
bcc


@<TRIPOS>ATOM
      1 C1          0.3530   -0.4580   -0.3900 cc        1 PY1     -0.180300
      2 C2          1.7410   -0.0590   -0.2000 cc        1 PY1      0.269300
      3 N3          2.1150   -0.3010    1.0950 nd        1 PY1     -0.505800
      4 N4          1.0550   -0.8140    1.7110 na        1 PY1     -0.010600
      5 C5         -0.0490   -0.9420    0.8700 cd        1 PY1     -0.138300
      6 C8         -0.4600   -0.3440   -1.5770 ca        1 PY1      0.063000
      7 C10         2.6470    0.4980   -1.2090 ca        1 PY1      0.375300
      8 N12         2.4990    0.0910   -2.4990 nb        1 PY1     -0.646000
      9 C13         3.3370    0.6120   -3.4090 ca        1 PY1      0.394200
     10 C14         4.3490    1.5440   -3.1070 ca        1 PY1     -0.243300
     11 C15         4.4920    1.9520   -1.7830 ca        1 PY1     -0.099000
     12 C16         3.6350    1.4280   -0.8130 ca        1 PY1     -0.219300
     13 C21        -1.0990   -1.4960   -2.1460 ca        1 PY1     -0.130300
     14 C22        -1.9250   -1.3090   -3.3000 ca        1 PY1      0.392600
     15 N23        -2.1120   -0.0670   -3.8780 nb        1 PY1     -0.661000
     16 C24        -1.4940    0.9640   -3.3300 ca        1 PY1      0.412200
     17 C25        -0.6570    0.8830   -2.1770 ca        1 PY1     -0.232300
     18 C28        -0.9320   -2.8030   -1.6210 ca        1 PY1     -0.110000
     19 C29        -1.5620   -3.8790   -2.1950 ca        1 PY1     -0.132000
     20 C30        -2.3910   -3.6980   -3.3260 ca        1 PY1     -0.126000
     21 C31        -2.5720   -2.4530   -3.8710 ca        1 PY1     -0.166300
     22 HN4         1.1120   -1.0710    2.6690 hn        1 PY1      0.326700
     23 H5         -1.0040   -1.3430    1.2070 h4        1 PY1      0.186000
     24 H13         3.1870    0.2560   -4.4450 h4        1 PY1      0.025100
     25 H14         5.0030    1.9300   -3.8990 ha        1 PY1      0.144000
     26 H15         5.2700    2.6760   -1.5000 ha        1 PY1      0.139000
     27 H16         3.7270    1.7310    0.2390 ha        1 PY1      0.155000
     28 H24        -1.6550    1.9440   -3.8160 h4        1 PY1      0.019100
     29 H25        -0.1820    1.7940   -1.7890 ha        1 PY1      0.146000
     30 H28        -0.2740   -2.9370   -0.7470 ha        1 PY1      0.137000
     31 H29        -1.4250   -4.8910   -1.7870 ha        1 PY1      0.132000
     32 H30        -2.8880   -4.5750   -3.7680 ha        1 PY1      0.133000
     33 H31        -3.2130   -2.3120   -4.7560 ha        1 PY1      0.148000
@<TRIPOS>BOND
     1    1    2 1   
     2    1    5 2   
     3    1    6 1   
     4    2    3 2   
     5    2    7 1   
     6    3    4 1   
     7    4    5 1   
     8    4   22 1   
     9    5   23 1   
    10    6   13 ar  
    11    6   17 ar  
    12    7    8 ar  
    13    7   12 ar  
    14    8    9 ar  
    15    9   10 ar  
    16    9   24 1   
    17   10   11 ar  
    18   10   25 1   
    19   11   12 ar  
    20   11   26 1   
    21   12   27 1   
    22   13   14 ar  
    23   13   18 ar  
    24   14   15 ar  
    25   14   21 ar  
    26   15   16 ar  
    27   16   17 ar  
    28   16   28 1   
    29   17   29 1   
    30   18   19 ar  
    31   18   30 1   
    32   19   20 ar  
    33   19   31 1   
    34   20   21 ar  
    35   20   32 1   
    36   21   33 1   
@<TRIPOS>SUBSTRUCTURE
     1 PY1         1 TEMP              0 ****  ****    0 ROOT
