@<TRIPOS>MOLECULE
molecule
   15    15     1     0     0
SMALL
bcc


@<TRIPOS>ATOM
      1 N1           0.0000     0.0000     0.0000 nb         1 PY2      -0.689000
      2 C2           1.3180     0.0000     0.0000 ca         1 PY2       0.440200
      3 C3           2.0250     0.0000     1.1860 ca         1 PY2      -0.201600
      4 C4           1.3310     0.0120     2.3860 ca         1 PY2      -0.073000
      5 C5          -0.0540     0.0160     2.3460 ca         1 PY2      -0.256300
      6 C6          -0.6940     0.0100     1.1210 ca         1 PY2       0.426200
      7 C            3.5310    -0.0050     1.1770 c3         1 PY2       0.094000
      8 S            4.1300    -1.7160     1.1860 sh         1 PY2      -0.415900
      9 H2           1.8540    -0.0090    -0.9420 h4         1 PY2       0.028100
     10 H4           1.8580     0.0140     3.3320 ha         1 PY2       0.142000
     11 H5          -0.6290     0.0250     3.2640 ha         1 PY2       0.140000
     12 H6          -1.7760     0.0110     1.0810 h4         1 PY2       0.024100
     13 H1           3.8890     0.4980     0.2870 h1         1 PY2       0.062700
     14 H2A          3.8990     0.5110     2.0560 h1         1 PY2       0.062700
     15 HS           5.4580    -1.7200     1.1790 hs         1 PY2       0.214800
@<TRIPOS>BOND
     1     1     2 ar
     2     1     6 ar
     3     2     3 ar
     4     2     9 1
     5     3     4 ar
     6     3     7 1
     7     4     5 ar
     8     4    10 1
     9     5     6 ar
    10     5    11 1
    11     6    12 1
    12     7     8 1
    13     7    13 1
    14     7    14 1
    15     8    15 1
@<TRIPOS>SUBSTRUCTURE
     1 PY2         1 TEMP              0 ****  ****    0 ROOT
