@<TRIPOS>MOLECULE
PY3
   91    94     1     0     0
SMALL
bcc


@<TRIPOS>ATOM
      1 C3          0.1630    1.3810   -0.2340 ca        1 PY3      0.047600
      2 C4          1.3740    2.0690    0.0130 ca        1 PY3     -0.269300
      3 C5          1.9930    1.9010    1.2620 ca        1 PY3      0.427700
      4 C1          0.3470    0.4760    1.9980 ca        1 PY3      0.427700
      5 C2         -0.3650    0.5680    0.7860 ca        1 PY3     -0.269300
      6 N6          1.5020    1.1170    2.2420 nb        1 PY3     -0.634000
      7 N7         -0.4780    1.5670   -1.4830 n         1 PY3     -0.430100
      8 C8         -1.4080    0.7290   -2.0380 c         1 PY3      0.667700
      9 C9         -2.0380    1.1350   -3.3430 ca        1 PY3     -0.110600
     10 O10        -1.7290   -0.3670   -1.5190 o         1 PY3     -0.640100
     11 C11        -2.5060    0.1580   -4.2440 ca        1 PY3     -0.055300
     12 C12        -3.0610    0.5590   -5.4660 ca        1 PY3     -0.100000
     13 C13        -3.2080    1.9100   -5.7810 ca        1 PY3     -0.064000
     14 C14        -2.8000    2.8770   -4.8580 ca        1 PY3     -0.230900
     15 C15        -2.2130    2.4910   -3.6480 ca        1 PY3     -0.067000
     16 C16        -2.9310    4.3180   -5.1910 ce        1 PY3      0.565800
     17 N17        -2.0950    5.1370   -5.6960 n2        1 PY3     -0.668100
     18 N18        -4.2960    4.8650   -4.8730 n4        1 PY3     -0.819600
     19 C19        -2.5890   -1.3060   -3.9150 c3        1 PY3      0.151100
     20 N20        -1.2820   -2.0030   -3.7530 n4        1 PY3     -0.671800
     21 C21        -1.4190   -3.5050   -3.7150 c         1 PY3      0.523100
     22 C22        -0.1920   -4.3160   -4.1560 c3        1 PY3      0.028000
     23 N23         0.9230   -4.2660   -3.2560 n         1 PY3     -0.317000
     24 O24        -2.5000   -3.9690   -3.3940 o         1 PY3     -0.393100
     25 C25         1.7670   -3.1530   -3.2880 c         1 PY3      0.551200
     26 C26         3.0540   -3.2120   -2.4700 cc        1 PY3      0.657200
     27 N27         3.2950   -4.2450   -1.6490 nd        1 PY3     -0.614300
     28 C28         2.4170   -5.2900   -1.6670 cd        1 PY3      0.126600
     29 C29         1.2820   -5.3800   -2.4580 cc        1 PY3     -0.106600
     30 C30         0.5280   -6.6420   -2.4790 ca        1 PY3     -0.002800
     31 N31         3.9230   -2.1820   -2.6690 nh        1 PY3     -0.784200
     32 C32         5.2130   -2.0680   -1.9960 c3        1 PY3      0.220500
     33 C33         6.1540   -1.1580   -2.7870 c3        1 PY3     -0.117100
     34 C34         5.0950   -1.5500   -0.5630 c3        1 PY3     -0.117100
     35 C35         0.5670   -7.4650   -3.6010 ca        1 PY3     -0.170000
     36 C36        -0.0740   -8.7380   -3.5970 ca        1 PY3      0.224600
     37 C37        -0.7210   -9.1590   -2.4060 ca        1 PY3     -0.196000
     38 C38        -0.7370   -8.3200   -1.2910 ca        1 PY3     -0.127600
     39 C39        -0.1360   -7.0580   -1.3150 ca        1 PY3     -0.116000
     40 N40        -0.1010   -9.5110   -4.7280 nh        1 PY3     -0.846200
     41 C41        -1.4180   -8.7170   -0.0450 c         1 PY3      0.566700
     42 N42        -1.1690  -10.1300    0.4310 n4        1 PY3     -0.682800
     43 C43        -2.4490  -10.8850    0.7470 c3        1 PY3      0.130500
     44 C44        -3.1880  -11.2720   -0.5380 c3        1 PY3     -0.099400
     45 C45        -4.6100  -11.6760   -0.2350 c3        1 PY3     -0.103100
     46 O46        -2.1180   -8.0170    0.6720 o         1 PY3     -0.406100
     47 C47        -2.1340  -12.1100    1.5930 c3        1 PY3     -0.139100
     48 O48         1.4110   -2.1370   -3.9340 o         1 PY3     -0.718500
     49 H4          1.8330    2.7300   -0.7350 ha        1 PY3      0.159500
     50 H5          2.9390    2.4280    1.4950 h4        1 PY3      0.049100
     51 H1         -0.0430   -0.1480    2.8260 h4        1 PY3      0.049100
     52 H2         -1.3080    0.0150    0.6640 ha        1 PY3      0.159500
     53 HN7        -0.1890    2.3730   -1.9930 hn        1 PY3      0.328500
     54 H12        -3.4100   -0.1950   -6.1940 ha        1 PY3      0.176000
     55 H13        -3.6410    2.1980   -6.7550 ha        1 PY3      0.175000
     56 H15        -1.9090    3.2730   -2.9300 ha        1 PY3      0.165000
     57 H17        -1.1740    4.8310   -5.9370 hn        1 PY3      0.498400
     58 H181       -4.9950    4.3300   -5.4000 hn        1 PY3      0.480133
     59 H182       -4.3740    5.8640   -5.1260 hn        1 PY3      0.480133
     60 H191       -3.1620   -1.4260   -2.9410 hx        1 PY3      0.134200
     61 H192       -3.1600   -1.8500   -4.7250 hx        1 PY3      0.134200
     62 H20        -0.8450   -1.7060   -2.8590 hn        1 PY3      0.485300
     63 H221       -0.5610   -5.3820   -4.2650 h1        1 PY3      0.127200
     64 H222        0.1220   -3.9290   -5.1730 h1        1 PY3      0.127200
     65 H28         2.6960   -6.1240   -0.9930 h4        1 PY3      0.196000
     66 H31         3.6150   -1.4140   -3.2250 hn        1 PY3      0.457800
     67 H32         5.6690   -3.1050   -1.9610 h1        1 PY3      0.092700
     68 H331        5.7720   -0.1100   -2.8220 hc        1 PY3      0.057533
     69 H332        7.1480   -1.1550   -2.2750 hc        1 PY3      0.057533
     70 H333        6.2970   -1.5280   -3.8300 hc        1 PY3      0.057533
     71 H341        4.4410   -2.2120    0.0530 hc        1 PY3      0.057533
     72 H342        6.1150   -1.5400   -0.1050 hc        1 PY3      0.057533
     73 H343        4.6870   -0.5120   -0.5410 hc        1 PY3      0.057533
     74 H35         1.1240   -7.1410   -4.4960 ha        1 PY3      0.159000
     75 H37        -1.2380  -10.1320   -2.3880 ha        1 PY3      0.146000
     76 H39        -0.1730   -6.4020   -0.4310 ha        1 PY3      0.168000
     77 H401        0.4950   -9.2810   -5.4870 hn        1 PY3      0.448300
     78 H402       -0.4430  -10.4400   -4.6760 hn        1 PY3      0.448300
     79 H42        -0.6090  -10.0870    1.2920 hn        1 PY3      0.461300
     80 H43        -3.0900  -10.1670    1.3470 hx        1 PY3      0.124700
     81 H441       -2.6540  -12.1200   -1.0430 hc        1 PY3      0.057200
     82 H442       -3.2050  -10.4010   -1.2490 hc        1 PY3      0.057200
     83 H451       -4.6440  -12.6100    0.3770 hc        1 PY3      0.065700
     84 H452       -5.1500  -10.8680    0.3160 hc        1 PY3      0.065700
     85 H453       -5.1530  -11.8710   -1.1940 hc        1 PY3      0.065700
     86 H471       -1.5160  -12.8530    1.0330 hc        1 PY3      0.084700
     87 H472       -3.1030  -12.6010    1.8680 hc        1 PY3      0.084700
     88 H473       -1.6120  -11.8350    2.5420 hc        1 PY3      0.084700
     89 H183       -4.4710    4.7590   -3.8680 hn        1 PY3      0.480133
     90 H202       -0.6210   -1.7480   -4.5040 hn        1 PY3      0.485300
     91 H422       -0.6380  -10.6470   -0.2770 hn        1 PY3      0.461300
@<TRIPOS>BOND
     1    1    2 ar  
     2    1    5 ar  
     3    1    7 1   
     4    2    3 ar  
     5    2   49 1   
     6    3    6 ar  
     7    3   50 1   
     8    4    5 ar  
     9    4    6 ar  
    10    4   51 1   
    11    5   52 1   
    12    7    8 1   
    13    7   53 1   
    14    8    9 1   
    15    8   10 2   
    16    9   11 ar  
    17    9   15 ar  
    18   11   12 ar  
    19   11   19 1   
    20   12   13 ar  
    21   12   54 1   
    22   13   14 ar  
    23   13   55 1   
    24   14   15 ar  
    25   14   16 1   
    26   15   56 1   
    27   16   17 2   
    28   16   18 1   
    29   17   57 1   
    30   18   58 1   
    31   18   59 1   
    32   18   89 1   
    33   19   20 1   
    34   19   60 1   
    35   19   61 1   
    36   20   21 1   
    37   20   62 1   
    38   20   90 1   
    39   21   22 1   
    40   21   24 2   
    41   22   23 1   
    42   22   63 1   
    43   22   64 1   
    44   23   25 1   
    45   23   29 1   
    46   25   26 1   
    47   25   48 2   
    48   26   27 2   
    49   26   31 1   
    50   27   28 1   
    51   28   29 2   
    52   28   65 1   
    53   29   30 1   
    54   30   35 ar  
    55   30   39 ar  
    56   31   32 1   
    57   31   66 1   
    58   32   33 1   
    59   32   34 1   
    60   32   67 1   
    61   33   68 1   
    62   33   69 1   
    63   33   70 1   
    64   34   71 1   
    65   34   72 1   
    66   34   73 1   
    67   35   36 ar  
    68   35   74 1   
    69   36   37 ar  
    70   36   40 1   
    71   37   38 ar  
    72   37   75 1   
    73   38   39 ar  
    74   38   41 1   
    75   39   76 1   
    76   40   77 1   
    77   40   78 1   
    78   41   42 1   
    79   41   46 2   
    80   42   43 1   
    81   42   79 1   
    82   42   91 1   
    83   43   44 1   
    84   43   47 1   
    85   43   80 1   
    86   44   45 1   
    87   44   81 1   
    88   44   82 1   
    89   45   83 1   
    90   45   84 1   
    91   45   85 1   
    92   47   86 1   
    93   47   87 1   
    94   47   88 1   
@<TRIPOS>SUBSTRUCTURE
     1 PY3         1 TEMP              0 ****  ****    0 ROOT
