@<TRIPOS>MOLECULE
PY4
   38    38     1     0     0
SMALL
bcc


@<TRIPOS>ATOM
      1 N1           0.0000     0.0000     0.0000 nb         1 PY4      -0.620000
      2 C2           1.3170     0.0000     0.0000 ca         1 PY4       0.248600
      3 C2A          2.0640     0.0020    -1.3090 c3         1 PY4      -0.015400
      4 C3           2.0240     0.0000     1.1930 ca         1 PY4      -0.004200
      5 O3           3.3840    -0.0010     1.1880 oh         1 PY4      -0.474100
      6 C4           1.3230    -0.0010     2.3940 ca         1 PY4      -0.102300
      7 C4A          2.0520    -0.0030     3.7130 c3         1 PY4       0.192100
      8 C5          -0.0610    -0.0070     2.3490 ca         1 PY4      -0.119600
      9 C6          -0.6950    -0.0010     1.1200 ca         1 PY4       0.375200
     10 C5A         -0.8660    -0.0090     3.6220 c3         1 PY4       0.260700
     11 O4P         -2.2590    -0.0030     3.3050 os         1 PY4      -0.464200
     12 P           -3.0560    -0.0040     4.7030 p5         1 PY4       0.669900
     13 O1P         -2.6880     1.1990     5.4820 o          1 PY4      -0.765167
     14 O2P         -4.6400     0.0020     4.4190 o          1 PY4      -0.765167
     15 O3P         -2.6670    -1.3230     5.5410 o          1 PY4      -0.765167
     16 N            2.2880     1.3800     4.1430 n7         1 PY4      -0.579200
     17 CA           2.9970     1.3090     5.4280 c3         1 PY4       0.008500
     18 C            4.4830     1.2840     5.1800 c          1 PY4       0.963600
     19 O            5.2150     0.7100     5.9520 o          1 PY4      -0.916300
     20 CB           2.6410     2.5300     6.2770 c3         1 PY4      -0.005400
     21 CG           1.1320     2.5540     6.5280 c3         1 PY4      -0.006100
     22 OXT          4.9950     1.9000     4.1040 o          1 PY4      -0.916300
     23 H2A1         1.3590     0.0970    -2.1260 hc         1 PY4      -0.011967
     24 H2A2         2.6140    -0.9250    -1.4120 hc         1 PY4      -0.011967
     25 H2A3         2.7550     0.8360    -1.3290 hc         1 PY4      -0.011967
     26 HO3          3.6970    -0.8760     1.0280 ho         1 PY4       0.371000
     27 H4A1         3.0010    -0.5130     3.6000 h1         1 PY4       0.017700
     28 H4A2         1.4530    -0.5150     4.4560 h1         1 PY4       0.017700
     29 H6          -1.7770    -0.0030     1.0780 h4         1 PY4       0.022100
     30 H5A1        -0.6240     0.8730     4.2030 h1         1 PY4       0.037700
     31 H5A2        -0.6300    -0.8960     4.1970 h1         1 PY4       0.037700
     32 HN2          2.8630     1.8450     3.4700 hn         1 PY4       0.291800
     33 HA           2.7040     0.4070     5.9520 h1         1 PY4       0.032700
     34 HB1          2.9340     3.4320     5.7530 hc         1 PY4      -0.006800
     35 HB2          3.1640     2.4770     7.2240 hc         1 PY4      -0.006800
     36 HG1          0.6170     2.7990     5.6070 hc         1 PY4       0.007033
     37 HG2          0.8080     1.5810     6.8750 hc         1 PY4       0.007033
     38 HG3          0.9030     3.3000     7.2790 hc         1 PY4       0.007033
@<TRIPOS>BOND
     1     1     2 ar  
     2     1     9 ar  
     3     2     3 1   
     4     2     4 ar  
     5     3    23 1   
     6     3    24 1   
     7     3    25 1   
     8     4     5 1   
     9     4     6 ar  
    10     5    26 1   
    11     6     7 1   
    12     6     8 ar  
    13     7    16 1   
    14     7    27 1   
    15     7    28 1   
    16     8     9 ar  
    17     8    10 1   
    18     9    29 1   
    19    10    11 1   
    20    10    30 1   
    21    10    31 1   
    22    11    12 1   
    23    12    13 1   
    24    12    14 1   
    25    12    15 1   
    26    16    17 1   
    27    16    32 1   
    28    17    18 1   
    29    17    20 1   
    30    17    33 1   
    31    18    19 1   
    32    18    22 1   
    33    20    21 1   
    34    20    34 1   
    35    20    35 1   
    36    21    36 1   
    37    21    37 1   
    38    21    38 1   
@<TRIPOS>SUBSTRUCTURE
     1 PY4         1 TEMP              0 ****  ****    0 ROOT
