@<TRIPOS>MOLECULE
molecule
   41    41     1     0     0
SMALL
bcc


@<TRIPOS>ATOM
      1 N1           0.0000     0.0000     0.0000 nb         1 PY5      -0.728000
      2 C2           1.3170     0.0000     0.0000 ca         1 PY5       0.321600
      3 C2A          2.0630    -0.0000    -1.3100 c3         1 PY5      -0.119400
      4 C3           2.0250     0.0000     1.1920 ca         1 PY5      -0.028200
      5 O3           3.3850    -0.0020     1.1870 oh         1 PY5      -0.518100
      6 C4           1.3240    -0.0010     2.3940 ca         1 PY5      -0.077300
      7 C4A          2.0530    -0.0020     3.7130 c3         1 PY5       0.200100
      8 C5          -0.0590    -0.0060     2.3480 ca         1 PY5      -0.130600
      9 C6          -0.6940     0.0000     1.1200 ca         1 PY5       0.416200
     10 C5A         -0.8640    -0.0050     3.6230 c3         1 PY5       0.176700
     11 O4P         -2.2570     0.0010     3.3060 os         1 PY5      -0.559200
     12 P           -3.0530    -0.0010     4.7060 p5         1 PY5       1.146900
     13 O1P         -2.6850     1.2050     5.4820 o          1 PY5      -0.905500
     14 O2P         -4.6380     0.0080     4.4230 o          1 PY5      -0.905500
     15 O3P         -2.6640    -1.3180     5.5440 o          1 PY5      -0.905500
     16 N            2.2910     1.3820     4.1410 n7         1 PY5      -0.813200
     17 CA           3.0010     1.3110     5.4260 c3         1 PY5       0.042500
     18 C            2.0000     1.2870     6.5520 c          1 PY5       0.849600
     19 O            2.2640     0.7120     7.5820 o          1 PY5      -0.818800
     20 CB           3.9080     2.5320     5.5760 c3         1 PY5      -0.047400
     21 CG           4.9250     2.5570     4.4320 c3         1 PY5      -0.084400
     22 CD           5.8320     3.7800     4.5830 c3         1 PY5      -0.093100
     23 OXT          0.8160     1.9020     6.4120 o          1 PY5      -0.818800
     24 H2A1         2.6000    -0.9340    -1.4200 hc         1 PY5       0.022367
     25 H2A2         1.3580     0.1090    -2.1260 hc         1 PY5       0.022367
     26 H2A3         2.7650     0.8250    -1.3270 hc         1 PY5       0.022367
     27 HO3          3.6970    -0.8740     1.0110 ho         1 PY5       0.382000
     28 H4A1         3.0010    -0.5140     3.6010 h1         1 PY5       0.042700
     29 H4A2         1.4530    -0.5120     4.4570 h1         1 PY5       0.042700
     30 H6          -1.7770    -0.0010     1.0780 h4         1 PY5       0.066100
     31 H5A1        -0.6220     0.8770     4.2030 h1         1 PY5       0.093700
     32 H5A2        -0.6290    -0.8920     4.1990 h1         1 PY5       0.093700
     33 HN2          1.4140     1.8470     4.2700 hn         1 PY5       0.403800
     34 HA           3.6010     0.4090     5.4570 h1         1 PY5       0.026700
     35 HB1          4.4320     2.4790     6.5230 hc         1 PY5       0.034200
     36 HB2          3.3080     3.4330     5.5450 hc         1 PY5       0.034200
     37 HG1          4.4010     2.6100     3.4850 hc         1 PY5       0.044200
     38 HG2          5.5250     1.6560     4.4630 hc         1 PY5       0.044200
     39 HD1          6.3510     3.7300     5.5320 hc         1 PY5       0.008700
     40 HD2          6.5560     3.7940     3.7760 hc         1 PY5       0.008700
     41 HD3          5.2330     4.6820     4.5450 hc         1 PY5       0.008700
@<TRIPOS>BOND
     1     1     2 ar
     2     1     9 ar
     3     2     3 1
     4     2     4 ar
     5     3    24 1
     6     3    25 1
     7     3    26 1
     8     4     5 1
     9     4     6 ar
    10     5    27 1
    11     6     7 1
    12     6     8 ar
    13     7    16 1
    14     7    28 1
    15     7    29 1
    16     8     9 ar
    17     8    10 1
    18     9    30 1
    19    10    11 1
    20    10    31 1
    21    10    32 1
    22    11    12 1
    23    12    13 1
    24    12    14 1
    25    12    15 1
    26    16    17 1
    27    16    33 1
    28    17    18 1
    29    17    20 1
    30    17    34 1
    31    18    19 1
    32    18    23 1
    33    20    21 1
    34    20    35 1
    35    20    36 1
    36    21    22 1
    37    21    37 1
    38    21    38 1
    39    22    39 1
    40    22    40 1
    41    22    41 1
@<TRIPOS>SUBSTRUCTURE
     1 PY5         1 TEMP              0 ****  ****    0 ROOT
