@<TRIPOS>MOLECULE
molecule
   44    44     1     0     0
SMALL
bcc


@<TRIPOS>ATOM
      1 N1           0.0000     0.0000     0.0000 nb         1 PY6      -0.728000
      2 C2           1.3170     0.0000     0.0000 ca         1 PY6       0.321600
      3 C2A          2.0630     0.0000    -1.3090 c3         1 PY6      -0.119400
      4 C3           2.0250     0.0000     1.1930 ca         1 PY6      -0.029200
      5 O3           3.3840    -0.0000     1.1880 oh         1 PY6      -0.518100
      6 C4           1.3240    -0.0000     2.3950 ca         1 PY6      -0.077300
      7 C4A          2.0530    -0.0020     3.7140 c3         1 PY6       0.200100
      8 C5          -0.0600    -0.0060     2.3490 ca         1 PY6      -0.130600
      9 C6          -0.6950    -0.0010     1.1210 ca         1 PY6       0.416200
     10 C5A         -0.8640    -0.0060     3.6240 c3         1 PY6       0.176700
     11 O4P         -2.2580    -0.0010     3.3080 os         1 PY6      -0.559200
     12 P           -3.0530    -0.0030     4.7060 p5         1 PY6       1.146900
     13 O1P         -2.6860     1.2020     5.4840 o          1 PY6      -0.905833
     14 O2P         -4.6380     0.0040     4.4230 o          1 PY6      -0.905833
     15 O3P         -2.6630    -1.3210     5.5440 o          1 PY6      -0.905833
     16 N            2.2900     1.3820     4.1420 n7         1 PY6      -0.813200
     17 CA           3.0000     1.3110     5.4260 c3         1 PY6       0.042500
     18 C            1.9990     1.2870     6.5530 c          1 PY6       0.849600
     19 O            2.2620     0.7120     7.5820 o          1 PY6      -0.818300
     20 CB           3.9070     2.5340     5.5760 c3         1 PY6      -0.048400
     21 CG           4.9230     2.5590     4.4330 c3         1 PY6      -0.081400
     22 CD           5.8290     3.7820     4.5840 c3         1 PY6      -0.087400
     23 CE           6.8450     3.8070     3.4400 c3         1 PY6      -0.091100
     24 OXT          0.8140     1.9010     6.4120 o          1 PY6      -0.818300
     25 H2A1         1.3590     0.1070    -2.1260 hc         1 PY6       0.022700
     26 H2A2         2.6030    -0.9320    -1.4180 hc         1 PY6       0.022700
     27 H2A3         2.7630     0.8270    -1.3260 hc         1 PY6       0.022700
     28 HO3          3.6980    -0.8730     1.0170 ho         1 PY6       0.382000
     29 H4A1         3.0020    -0.5120     3.6010 h1         1 PY6       0.043200
     30 H4A2         1.4540    -0.5130     4.4580 h1         1 PY6       0.043200
     31 H6          -1.7770    -0.0030     1.0790 h4         1 PY6       0.065100
     32 H5A1        -0.6280    -0.8930     4.1990 h1         1 PY6       0.093700
     33 H5A2        -0.6220     0.8760     4.2040 h1         1 PY6       0.093700
     34 HN2          1.4120     1.8460     4.2720 hn         1 PY6       0.403800
     35 HA           3.6010     0.4100     5.4570 h1         1 PY6       0.026700
     36 HB1          4.4300     2.4810     6.5240 hc         1 PY6       0.034200
     37 HB2          3.3060     3.4350     5.5460 hc         1 PY6       0.034200
     38 HG1          5.5240     1.6580     4.4650 hc         1 PY6       0.045700
     39 HG2          4.4000     2.6120     3.4860 hc         1 PY6       0.045700
     40 HD1          6.3530     3.7290     5.5310 hc         1 PY6       0.027200
     41 HD2          5.2280     4.6830     4.5530 hc         1 PY6       0.027200
     42 HE1          7.4840     4.6760     3.5440 hc         1 PY6       0.016033
     43 HE2          7.4490     2.9080     3.4740 hc         1 PY6       0.016033
     44 HE3          6.3220     3.8550     2.4930 hc         1 PY6       0.016033
@<TRIPOS>BOND
     1     1     2 ar
     2     1     9 ar
     3     2     3 1
     4     2     4 ar
     5     3    25 1
     6     3    26 1
     7     3    27 1
     8     4     5 1
     9     4     6 ar
    10     5    28 1
    11     6     7 1
    12     6     8 ar
    13     7    16 1
    14     7    29 1
    15     7    30 1
    16     8     9 ar
    17     8    10 1
    18     9    31 1
    19    10    11 1
    20    10    32 1
    21    10    33 1
    22    11    12 1
    23    12    13 1
    24    12    14 1
    25    12    15 1
    26    16    17 1
    27    16    34 1
    28    17    18 1
    29    17    20 1
    30    17    35 1
    31    18    19 1
    32    18    24 1
    33    20    21 1
    34    20    36 1
    35    20    37 1
    36    21    22 1
    37    21    38 1
    38    21    39 1
    39    22    23 1
    40    22    40 1
    41    22    41 1
    42    23    42 1
    43    23    43 1
    44    23    44 1
@<TRIPOS>SUBSTRUCTURE
     1 PY6         1 TEMP              0 ****  ****    0 ROOT
