@<TRIPOS>MOLECULE
molecule
   15    15     1     0     0
SMALL
bcc


@<TRIPOS>ATOM
      1 N1           0.0000     0.0000     0.0000 nb         1 PY7      -0.687000
      2 C2           1.3190     0.0000     0.0000 ca         1 PY7       0.416200
      3 C3           2.0260     0.0000     1.1870 ca         1 PY7      -0.234300
      4 C4           1.3320    -0.0110     2.3870 ca         1 PY7      -0.051300
      5 C5          -0.0540    -0.0110     2.3480 ca         1 PY7      -0.234300
      6 C6          -0.6930    -0.0040     1.1230 ca         1 PY7       0.416200
      7 C7           2.0670    -0.0170     3.7030 c3         1 PY7       0.186700
      8 O8           2.2980    -1.3660     4.1130 oh         1 PY7      -0.601800
      9 H2           1.8540     0.0060    -0.9420 h4         1 PY7       0.023600
     10 H3           3.1100     0.0000     1.1810 ha         1 PY7       0.140000
     11 H5          -0.6280    -0.0170     3.2670 ha         1 PY7       0.140000
     12 H6          -1.7750    -0.0040     1.0840 h4         1 PY7       0.023600
     13 H71          3.0160     0.4940     3.5890 h1         1 PY7       0.028700
     14 H72          1.4720     0.4910     4.4520 h1         1 PY7       0.028700
     15 HO8          2.7590    -1.3700     4.9360 ho         1 PY7       0.404000
@<TRIPOS>BOND
     1     1     2 ar
     2     1     6 ar
     3     2     3 ar
     4     2     9 1
     5     3     4 ar
     6     3    10 1
     7     4     5 ar
     8     4     7 1
     9     5     6 ar
    10     5    11 1
    11     6    12 1
    12     7     8 1
    13     7    13 1
    14     7    14 1
    15     8    15 1
@<TRIPOS>SUBSTRUCTURE
     1 PY7         1 TEMP              0 ****  ****    0 ROOT
