@<TRIPOS>MOLECULE
PY7
   15    15     1     0     0
SMALL
bcc


@<TRIPOS>ATOM
      1 N1         -0.0320    0.0140   -0.0570 nb        1 PY7     -0.660000
      2 C2          1.3140    0.0060   -0.0040 ca        1 PY7      0.390200
      3 C3          2.0460   -0.0140    1.1970 ca        1 PY7     -0.226300
      4 C4          1.3430   -0.0250    2.4070 ca        1 PY7     -0.048300
      5 C5         -0.0560   -0.0220    2.3700 ca        1 PY7     -0.226300
      6 C6         -0.6940   -0.0010    1.1170 ca        1 PY7      0.390200
      7 C7          2.0720   -0.0200    3.7120 c3        1 PY7      0.172700
      8 O8          2.2930   -1.3690    4.0990 oh        1 PY7     -0.589800
      9 H2          1.8320    0.0140   -0.9800 h4        1 PY7      0.022100
     10 H3          3.1430   -0.0290    1.1810 ha        1 PY7      0.145000
     11 H5         -0.6450   -0.0420    3.2960 ha        1 PY7      0.145000
     12 H6         -1.7960    0.0010    1.0460 h4        1 PY7      0.022100
     13 H71         3.0580    0.5100    3.6060 h1        1 PY7      0.030700
     14 H72         1.4600    0.5040    4.4980 h1        1 PY7      0.030700
     15 HO8         2.7630   -1.3350    4.9410 ho        1 PY7      0.402000
@<TRIPOS>BOND
     1    1    2 ar  
     2    1    6 ar  
     3    2    3 ar  
     4    2    9 1   
     5    3    4 ar  
     6    3   10 1   
     7    4    5 ar  
     8    4    7 1   
     9    5    6 ar  
    10    5   11 1   
    11    6   12 1   
    12    7    8 1   
    13    7   13 1   
    14    7   14 1   
    15    8   15 1   
@<TRIPOS>SUBSTRUCTURE
     1 PY7         1 TEMP              0 ****  ****    0 ROOT
