@<TRIPOS>MOLECULE
PY8
   37    39     1     0     0
SMALL
bcc


@<TRIPOS>ATOM
      1 BR1         0.1830    0.3140    0.0690 br        1 PY8     -0.024100
      2 C1          2.0180    0.0480    0.0410 ca        1 PY8     -0.368500
      3 C2          2.7250   -0.1310    1.2430 ca        1 PY8      0.528200
      4 N3          4.0520   -0.2950    1.3120 nb        1 PY8     -0.743000
      5 C4          4.7270   -0.3130    0.1020 ca        1 PY8      0.896900
      6 N5          4.1460   -0.1980   -1.1440 nb        1 PY8     -0.844000
      7 C6          2.7880    0.0150   -1.1730 ca        1 PY8      0.747200
      8 N7          2.1580    0.2390   -2.3870 nh        1 PY8     -0.875900
      9 C8          2.7360   -0.0600   -3.6610 c3        1 PY8      0.235800
     10 C9          3.8180    0.9210   -4.1330 c3        1 PY8     -0.130400
     11 C10         4.6860    0.3230   -5.2340 c3        1 PY8      0.119800
     12 N13         5.5080   -0.8310   -4.7930 n4        1 PY8     -0.704900
     13 S14         7.4150   -0.5970   -4.7210 sy        1 PY8      1.483200
     14 O14         7.6580    0.2950   -5.7430 o         1 PY8     -0.567300
     15 O15         7.7730   -1.9220   -4.8400 o         1 PY8     -0.567300
     16 C15         7.5280    0.0350   -3.2450 ca        1 PY8     -0.508500
     17 C20         6.9150   -0.5670   -2.1310 ca        1 PY8      0.012000
     18 C16         8.2620    1.2230   -3.0410 ca        1 PY8      0.004000
     19 C17         8.3810    1.7750   -1.7720 ca        1 PY8     -0.127000
     20 C18         7.7040    1.2150   -0.6900 ca        1 PY8     -0.039000
     21 C19         6.9170    0.0550   -0.8720 ca        1 PY8      0.120600
     22 N21         6.1400   -0.5040    0.1710 nh        1 PY8     -0.709300
     23 H2          2.1990   -0.1310    2.2220 h4        1 PY8      0.062100
     24 H21         6.5270   -0.3980    1.0900 hn        1 PY8      0.457800
     25 H7          1.1740    0.4040   -2.3570 hn        1 PY8      0.469800
     26 H8C1        1.9010   -0.0490   -4.4230 h1        1 PY8      0.047200
     27 H8C2        3.1480   -1.1110   -3.6380 h1        1 PY8      0.047200
     28 H9C1        3.3260    1.8370   -4.5590 hc        1 PY8      0.093200
     29 H9C2        4.4580    1.2670   -3.2800 hc        1 PY8      0.093200
     30 H101        4.0260   -0.0060   -6.0880 hx        1 PY8      0.103700
     31 H102        5.3910    1.1130   -5.6300 hx        1 PY8      0.103700
     32 H13         5.3270   -1.6180   -5.4180 hn        1 PY8      0.450300
     33 H20         6.4150   -1.5480   -2.2340 ha        1 PY8      0.161000
     34 H16         8.7460    1.7200   -3.9030 ha        1 PY8      0.173000
     35 H17         8.9960    2.6800   -1.6240 ha        1 PY8      0.177000
     36 H18         7.7800    1.6900    0.3050 ha        1 PY8      0.172000
     37 H132        5.1820   -1.1170   -3.8660 hn        1 PY8      0.450300
@<TRIPOS>BOND
     1    1    2 1
     2    2    3 ar
     3    2    7 ar
     4    3    4 ar
     5    3   23 1
     6    4    5 ar
     7    5    6 ar
     8    5   22 1
     9    6    7 ar
    10    7    8 1
    11    8    9 1
    12    8   25 1
    13    9   10 1
    14    9   26 1
    15    9   27 1
    16   10   11 1
    17   10   28 1
    18   10   29 1
    19   11   12 1
    20   11   30 1
    21   11   31 1
    22   12   13 1
    23   12   32 1
    24   12   37 1
    25   13   14 2
    26   13   15 2
    27   13   16 1
    28   16   17 ar
    29   16   18 ar
    30   17   21 ar
    31   17   33 1
    32   18   19 ar
    33   18   34 1
    34   19   20 ar
    35   19   35 1
    36   20   21 ar
    37   20   36 1
    38   21   22 1
    39   22   24 1
@<TRIPOS>SUBSTRUCTURE
     1 PY8         1 TEMP              0 ****  ****    0 ROOT
