@<TRIPOS>MOLECULE
molecule
   41    43     1     0     0
SMALL
bcc


@<TRIPOS>ATOM
      1 N1           0.0000     0.0000     0.0000 n          1 PY9      -0.495800
      2 C4          -5.0060    -0.2470    -0.6780 ca         1 PY9       0.166100
      3 C5          -4.3840    -0.8970    -1.7340 ca         1 PY9      -0.261000
      4 C6          -3.0090    -0.8270    -1.8770 ca         1 PY9       0.203100
      5 C7          -0.7850    -0.0150    -1.0960 c          1 PY9       0.694700
      6 C8           1.4700     0.0000     0.0000 c3         1 PY9       0.165000
      7 C10          0.6950    -0.5720     2.2210 c3         1 PY9      -0.098400
      8 C13          1.1980     2.3710    -0.7550 ca         1 PY9      -0.103000
      9 C15          2.9240     3.5000    -1.9720 ca         1 PY9      -0.124000
     10 C17          3.2390     1.2320    -1.2740 ca         1 PY9      -0.071300
     11 C14          1.6680     3.5030    -1.3930 ca         1 PY9      -0.131000
     12 C2          -2.8870     0.5560     0.1090 ca         1 PY9      -0.066000
     13 C16          3.7090     2.3650    -1.9110 ca         1 PY9      -0.125000
     14 C3          -4.2530     0.4790     0.2400 ca         1 PY9      -0.203000
     15 C1          -2.2490    -0.0960    -0.9520 ca         1 PY9      -0.182600
     16 C12          1.9830     1.2350    -0.6950 ca         1 PY9      -0.086300
     17 C9           1.9290     0.0000     1.4730 c3         1 PY9      -0.088400
     18 C11         -0.4730     0.0250     1.3950 c3         1 PY9       0.088000
     19 C18          4.0960    -0.0070    -1.2090 c3         1 PY9      -0.049800
     20 O3          -0.2850     0.0380    -2.2030 o          1 PY9      -0.570100
     21 O1          -2.3980    -1.4620    -2.9090 oh         1 PY9      -0.460100
     22 H5          -4.9740    -1.4610    -2.4460 ha         1 PY9       0.146000
     23 H8           1.8370    -0.8890    -0.4980 h1         1 PY9       0.071700
     24 H10          0.6650    -0.2170     3.2440 hc         1 PY9       0.057200
     25 H10A         0.6840    -1.6550     2.1770 hc         1 PY9       0.057200
     26 H13          0.2140     2.3730    -0.3020 ha         1 PY9       0.129000
     27 H15          3.2920     4.3880    -2.4710 ha         1 PY9       0.127000
     28 H14          1.0520     4.3930    -1.4400 ha         1 PY9       0.126000
     29 H2          -2.3050     1.1220     0.8260 ha         1 PY9       0.146000
     30 H16          4.6930     2.3620    -2.3640 ha         1 PY9       0.128000
     31 H3          -4.7460     0.9840     1.0610 ha         1 PY9       0.144000
     32 H9           2.7880    -0.6460     1.6060 hc         1 PY9       0.059200
     33 H9A          2.1430     1.0080     1.8060 hc         1 PY9       0.059200
     34 H11         -1.3600    -0.5870     1.5020 h1         1 PY9       0.047700
     35 H11A        -0.6700     1.0440     1.7060 h1         1 PY9       0.047700
     36 H18          4.3440    -0.2210    -0.1760 hc         1 PY9       0.043033
     37 H18A         5.0060     0.1530    -1.7740 hc         1 PY9       0.043033
     38 H18B         3.5520    -0.8440    -1.6300 hc         1 PY9       0.043033
     39 HO2         -6.7530     0.4070    -1.0050 ho         1 PY9       0.427000
     40 HO1         -3.0090    -2.0480    -3.3230 ho         1 PY9       0.421000
     41 O2          -6.3550    -0.3140    -0.5450 oh         1 PY9      -0.523100
@<TRIPOS>BOND
     1     5     1 1
     2     1    18 1
     3     1     6 1
     4     3     2 ar
     5    41     2 1
     6     2    14 ar
     7     3     4 ar
     8     3    22 1
     9    21     4 1
    10     4    15 ar
    11    20     5 2
    12    15     5 1
    13     6    16 1
    14     6    17 1
    15     6    23 1
    16    18     7 1
    17     7    17 1
    18     7    24 1
    19     7    25 1
    20     8    16 ar
    21     8    11 ar
    22     8    26 1
    23    11     9 ar
    24     9    13 ar
    25     9    27 1
    26    16    10 ar
    27    10    13 ar
    28    10    19 1
    29    11    28 1
    30    15    12 ar
    31    14    12 ar
    32    12    29 1
    33    13    30 1
    34    14    31 1
    35    17    32 1
    36    17    33 1
    37    18    34 1
    38    18    35 1
    39    19    36 1
    40    19    37 1
    41    19    38 1
    42    41    39 1
    43    21    40 1
@<TRIPOS>SUBSTRUCTURE
     1 PY9         1 TEMP              0 ****  ****    0 ROOT
