@<TRIPOS>MOLECULE
PYB
   17    17     1     0     0
SMALL
bcc


@<TRIPOS>ATOM
      1 N            0.0000     0.0000     0.0000 nv         1 PYB      -0.435200
      2 CA           1.3490     0.0000     0.0000 cc         1 PYB      -0.055400
      3 CB1          2.1930     0.0000     1.1380 cc         1 PYB      -0.210000
      4 CB           2.1600     0.0010    -1.1130 cd         1 PYB      -0.474300
      5 CG1          3.4930     0.0010     0.6850 cd         1 PYB      -0.252900
      6 NG2          3.4620     0.0010    -0.6840 na         1 PYB       0.462900
      7 CD           4.6150     0.0020    -1.5580 c3         1 PYB      -0.020400
      8 C            4.6900     0.0020     1.4710 c          1 PYB       0.984200
      9 O            5.7870    -0.5000     1.1480 o          1 PYB      -0.894800
     10 OXT          4.5470     0.6320     2.6800 o          1 PYB      -0.894800
     11 H           -0.5000     0.2760    -0.8220 hn         1 PYB       0.241800
     12 HN2         -0.5000    -0.2560     0.8280 hn         1 PYB       0.241800
     13 HB1          1.8730    -0.0000     2.1730 ha         1 PYB       0.135000
     14 HB           1.8280     0.0010    -2.1450 h4         1 PYB       0.128000
     15 HD1          5.0180    -1.0020    -1.6240 h1         1 PYB       0.015033
     16 HD2          5.3700     0.6690    -1.1590 h1         1 PYB       0.015033
     17 HD3          4.3200     0.3390    -2.5440 h1         1 PYB       0.015033
@<TRIPOS>BOND
     1     1     2 1   
     2     1    11 1   
     3     1    12 1   
     4     2     3 1   
     5     2     4 2   
     6     3     5 2   
     7     3    13 1   
     8     4     6 1   
     9     4    14 1   
    10     5     6 1   
    11     5     8 1   
    12     6     7 1   
    13     7    15 1   
    14     7    16 1   
    15     7    17 1   
    16     8     9 1   
    17     8    10 1   
@<TRIPOS>SUBSTRUCTURE
     1 PYB         1 TEMP              0 ****  ****    0 ROOT
