@<TRIPOS>MOLECULE
PYC
   12    12     1     0     0
SMALL
bcc


@<TRIPOS>ATOM
      1 O7         -0.0330    0.0010    0.0930 o         1 PYC     -0.832300
      2 O8          1.8340   -0.0010   -1.1390 o         1 PYC     -0.832300
      3 C1          1.2270   -0.0000   -0.0360 c         1 PYC      0.931200
      4 C2          2.0540   -0.0000    1.2330 cc        1 PYC     -0.134900
      5 C3          3.4500   -0.0020    1.4170 cd        1 PYC     -0.215000
      6 C4          3.6990   -0.0010    2.8270 cd        1 PYC     -0.223000
      7 C5          2.4490    0.0000    3.4700 cc        1 PYC     -0.228300
      8 N6          1.4620    0.0010    2.4930 na        1 PYC     -0.156100
      9 H31         4.1850   -0.0030    0.6200 ha        1 PYC      0.145000
     10 H41         4.6670   -0.0020    3.3130 ha        1 PYC      0.117000
     11 H61         2.2060    0.0010    4.5290 h4        1 PYC      0.132000
     12 HN6         0.4850    0.0020    2.6310 hn        1 PYC      0.296700
@<TRIPOS>BOND
     1    1    3 1   
     2    2    3 1   
     3    3    4 1   
     4    4    5 2   
     5    4    8 1   
     6    5    6 1   
     7    5    9 1   
     8    6    7 2   
     9    6   10 1   
    10    7    8 1   
    11    7   11 1   
    12    8   12 1   
@<TRIPOS>SUBSTRUCTURE
     1 PYC         1 TEMP              0 ****  ****    0 ROOT
