@<TRIPOS>MOLECULE
molecule
   12    12     1     0     0
SMALL
bcc


@<TRIPOS>ATOM
      1 O7           0.0000     0.0000     0.0000 o          1 PYC      -0.842300
      2 O8           1.9190     0.0050    -1.1090 o          1 PYC      -0.842300
      3 C1           1.2790     0.0000     0.0000 c          1 PYC       0.907200
      4 C2           2.0110     0.0000     1.2660 cc         1 PYC      -0.121900
      5 C3           3.3840    -0.0060     1.4160 cd         1 PYC      -0.201000
      6 C4           3.6430     0.0000     2.7900 cd         1 PYC      -0.236000
      7 C5           2.4530     0.0010     3.4370 cc         1 PYC      -0.218300
      8 N6           1.4570     0.0010     2.5280 na         1 PYC      -0.134100
      9 H31          4.1200    -0.0080     0.6210 ha         1 PYC       0.150000
     10 H41          4.6220    -0.0010     3.2540 ha         1 PYC       0.114000
     11 H61          2.3220     0.0030     4.5130 h4         1 PYC       0.129000
     12 HN6          0.4770     0.0010     2.7350 hn         1 PYC       0.295700
@<TRIPOS>BOND
     1     1     3 1
     2     2     3 1
     3     3     4 1
     4     4     5 2
     5     4     8 1
     6     5     6 1
     7     5     9 1
     8     6     7 2
     9     6    10 1
    10     7     8 1
    11     7    11 1
    12     8    12 1
@<TRIPOS>SUBSTRUCTURE
     1 PYC         1 TEMP              0 ****  ****    0 ROOT
