@<TRIPOS>MOLECULE
molecule
   18    18     1     0     0
SMALL
bcc


@<TRIPOS>ATOM
      1 N1'          0.0000     0.0000     0.0000 nb         1 PYD      -0.782000
      2 C2'          1.3170     0.0000     0.0000 ca         1 PYD       0.724300
      3 CM2          2.0500    -0.0040    -1.3170 c3         1 PYD      -0.122400
      4 N3'          2.0110     0.0000     1.1190 nb         1 PYD      -0.811000
      5 C4'          1.3980     0.0090     2.2990 ca         1 PYD       0.735200
      6 N4'          2.1300     0.0130     3.4730 nv         1 PYD      -1.001500
      7 C5'          0.0020     0.0080     2.3330 ca         1 PYD      -0.413900
      8 C6'         -0.6830     0.0040     1.1340 ca         1 PYD       0.493200
      9 C7'         -0.7380     0.0130     3.6460 c3         1 PYD      -0.031800
     10 HM21         1.3480     0.1830    -2.1210 hc         1 PYD       0.059033
     11 HM22         2.5210    -0.9680    -1.4650 hc         1 PYD       0.059033
     12 HM23         2.8070     0.7710    -1.3110 hc         1 PYD       0.059033
     13 HN41         1.6600     0.0220     4.3570 hn         1 PYD       0.443300
     14 HN42         3.1310     0.0080     3.4390 hn         1 PYD       0.443300
     15 HC6'        -1.7670     0.0040     1.1220 h4         1 PYD       0.026100
     16 HC71        -0.4690     0.8990     4.2090 hc         1 PYD       0.040033
     17 HC72        -1.8050     0.0130     3.4590 hc         1 PYD       0.040033
     18 HC73        -0.4710    -0.8700     4.2140 hc         1 PYD       0.040033
@<TRIPOS>BOND
     1     1     2 ar
     2     1     8 ar
     3     2     3 1
     4     2     4 ar
     5     3    10 1
     6     3    11 1
     7     3    12 1
     8     4     5 ar
     9     5     6 1
    10     5     7 ar
    11     6    13 1
    12     6    14 1
    13     7     8 ar
    14     7     9 1
    15     8    15 1
    16     9    16 1
    17     9    17 1
    18     9    18 1
@<TRIPOS>SUBSTRUCTURE
     1 PYD         1 TEMP              0 ****  ****    0 ROOT
