@<TRIPOS>MOLECULE
molecule
   16    16     1     0     0
SMALL
bcc


@<TRIPOS>ATOM
      1 C1           0.0000     0.0000     0.0000 c3         1 PYE       0.125900
      2 C2           1.5290     0.0000     0.0000 c3         1 PYE      -0.116400
      3 C3           2.0290     0.0000     1.4490 c3         1 PYE      -0.081400
      4 C4           1.3760     1.1700     2.1930 c3         1 PYE      -0.116400
      5 C5          -0.1420     1.0810     2.0260 c3         1 PYE       0.125900
      6 O5          -0.4830     1.1750     0.6450 os         1 PYE      -0.402600
      7 H11         -0.3590    -0.8740     0.5300 h1         1 PYE       0.044700
      8 H12         -0.3580    -0.0210    -1.0220 h1         1 PYE       0.044700
      9 H21          1.8910    -0.8870    -0.5070 hc         1 PYE       0.050200
     10 H22          1.8910     0.8870    -0.5070 hc         1 PYE       0.050200
     11 H31          3.1060     0.1180     1.4620 hc         1 PYE       0.041700
     12 H32          1.7540    -0.9320     1.9270 hc         1 PYE       0.041700
     13 H41          1.7310     2.1050     1.7780 hc         1 PYE       0.050200
     14 H42          1.6280     1.1150     3.2450 hc         1 PYE       0.050200
     15 H51         -0.6100     1.8950     2.5670 h1         1 PYE       0.044700
     16 H52         -0.4910     0.1330     2.4190 h1         1 PYE       0.044700
@<TRIPOS>BOND
     1     1     2 1
     2     1     6 1
     3     1     7 1
     4     1     8 1
     5     2     3 1
     6     2     9 1
     7     2    10 1
     8     3     4 1
     9     3    11 1
    10     3    12 1
    11     4     5 1
    12     4    13 1
    13     4    14 1
    14     5     6 1
    15     5    15 1
    16     5    16 1
@<TRIPOS>SUBSTRUCTURE
     1 PYE         1 TEMP              0 ****  ****    0 ROOT
