@<TRIPOS>MOLECULE
PYE
   16    16     1     0     0
SMALL
bcc


@<TRIPOS>ATOM
      1 C1          0.0110   -0.0330   -0.0240 c3        1 PYE      0.127400
      2 C2          1.5290   -0.0150    0.0100 c3        1 PYE     -0.112400
      3 C3          2.0310    0.0220    1.4380 c3        1 PYE     -0.077400
      4 C4          1.3730    1.1550    2.2000 c3        1 PYE     -0.112400
      5 C5         -0.1380    1.0830    2.0660 c3        1 PYE      0.127400
      6 O5         -0.5540    1.0510    0.7050 os        1 PYE     -0.416600
      7 H11        -0.3790   -1.0020    0.3890 h1        1 PYE      0.045200
      8 H12        -0.3740    0.1150   -1.0680 h1        1 PYE      0.045200
      9 H21         1.9010    0.8880   -0.5410 hc        1 PYE      0.049700
     10 H22         1.9220   -0.9230   -0.5140 hc        1 PYE      0.049700
     11 H31         3.1440    0.1530    1.4480 hc        1 PYE      0.041700
     12 H32         1.8020   -0.9530    1.9430 hc        1 PYE      0.041700
     13 H41         1.7340    2.1360    1.7960 hc        1 PYE      0.049700
     14 H42         1.6520    1.1050    3.2830 hc        1 PYE      0.049700
     15 H51        -0.5360    0.1770    2.5980 h1        1 PYE      0.045200
     16 H52        -0.6260    2.0070    2.4750 h1        1 PYE      0.045200
@<TRIPOS>BOND
     1    1    2 1   
     2    1    6 1   
     3    1    7 1   
     4    1    8 1   
     5    2    3 1   
     6    2    9 1   
     7    2   10 1   
     8    3    4 1   
     9    3   11 1   
    10    3   12 1   
    11    4    5 1   
    12    4   13 1   
    13    4   14 1   
    14    5    6 1   
    15    5   15 1   
    16    5   16 1   
@<TRIPOS>SUBSTRUCTURE
     1 PYE         1 TEMP              0 ****  ****    0 ROOT
