@<TRIPOS>MOLECULE
molecule
   15    15     1     0     0
SMALL
bcc


@<TRIPOS>ATOM
      1 N1           0.0000     0.0000     0.0000 nb         1 PYF      -0.692000
      2 C2           1.3190     0.0000     0.0000 ca         1 PYF       0.439200
      3 C3           2.0240     0.0000     1.1860 ca         1 PYF      -0.212600
      4 C4           1.3310     0.0110     2.3860 ca         1 PYF      -0.072000
      5 C5          -0.0550     0.0180     2.3470 ca         1 PYF      -0.258300
      6 C6          -0.6930     0.0110     1.1220 ca         1 PYF       0.424200
      7 C7           3.5320    -0.0060     1.1760 c3         1 PYF       0.191700
      8 O7           4.0030    -1.3540     1.1830 oh         1 PYF      -0.603800
      9 H2           1.8540    -0.0090    -0.9420 h4         1 PYF       0.025100
     10 H4           1.8590     0.0140     3.3320 ha         1 PYF       0.140000
     11 H5          -0.6300     0.0270     3.2650 ha         1 PYF       0.139000
     12 H6          -1.7760     0.0130     1.0820 h4         1 PYF       0.023100
     13 H71          3.8890     0.4970     0.2860 h1         1 PYF       0.026700
     14 H72          3.9010     0.5100     2.0550 h1         1 PYF       0.026700
     15 HO7          4.9450    -1.3580     1.1790 ho         1 PYF       0.403000
@<TRIPOS>BOND
     1     1     2 ar
     2     1     6 ar
     3     2     3 ar
     4     2     9 1
     5     3     4 ar
     6     3     7 1
     7     4     5 ar
     8     4    10 1
     9     5     6 ar
    10     5    11 1
    11     6    12 1
    12     7     8 1
    13     7    13 1
    14     7    14 1
    15     8    15 1
@<TRIPOS>SUBSTRUCTURE
     1 PYF         1 TEMP              0 ****  ****    0 ROOT
