@<TRIPOS>MOLECULE
PYF
   15    15     1     0     0
SMALL
bcc


@<TRIPOS>ATOM
      1 N1         -0.0340    0.5550    0.0170 nb        1 PYF     -0.664000
      2 C2          1.3050    0.4300    0.0210 ca        1 PYF      0.392200
      3 C3          2.0400   -0.0650    1.1200 ca        1 PYF     -0.205600
      4 C4          1.3370   -0.4470    2.2670 ca        1 PYF     -0.066000
      5 C5         -0.0540   -0.3230    2.2770 ca        1 PYF     -0.247300
      6 C6         -0.6940    0.1820    1.1320 ca        1 PYF      0.391200
      7 C7          3.5230   -0.1600    1.0140 c3        1 PYF      0.181700
      8 O7          4.0480   -0.6880    2.2240 oh        1 PYF     -0.599800
      9 H2          1.8200    0.7430   -0.9050 h4        1 PYF      0.019100
     10 H4          1.8800   -0.8370    3.1420 ha        1 PYF      0.159000
     11 H5         -0.6390   -0.6120    3.1600 ha        1 PYF      0.144000
     12 H6         -1.7920    0.2960    1.0990 h4        1 PYF      0.021100
     13 H71         3.9570    0.8620    0.8280 h1        1 PYF      0.034700
     14 H72         3.8010   -0.8330    0.1560 h1        1 PYF      0.034700
     15 HO7         5.0040   -0.7300    2.1060 ho        1 PYF      0.406000
@<TRIPOS>BOND
     1    1    2 ar  
     2    1    6 ar  
     3    2    3 ar  
     4    2    9 1   
     5    3    4 ar  
     6    3    7 1   
     7    4    5 ar  
     8    4   10 1   
     9    5    6 ar  
    10    5   11 1   
    11    6   12 1   
    12    7    8 1   
    13    7   13 1   
    14    7   14 1   
    15    8   15 1   
@<TRIPOS>SUBSTRUCTURE
     1 PYF         1 TEMP              0 ****  ****    0 ROOT
