@<TRIPOS>MOLECULE
molecule
   15    15     1     0     0
SMALL
bcc


@<TRIPOS>ATOM
      1 C1           0.0000     0.0000     0.0000 ca         1 PYG       0.096100
      2 C2           1.3890     0.0000     0.0000 ca         1 PYG       0.072100
      3 C3           2.0810     0.0000     1.2050 ca         1 PYG       0.096100
      4 C4           1.3810    -0.0110     2.4030 ca         1 PYG      -0.165000
      5 C5           0.0000    -0.0160     2.3990 ca         1 PYG      -0.108000
      6 C6          -0.6910    -0.0110     1.2010 ca         1 PYG      -0.165000
      7 O1          -0.6810     0.0060    -1.1770 oh         1 PYG      -0.511600
      8 O2           2.0710     0.0100    -1.1780 oh         1 PYG      -0.508100
      9 O3           3.4390     0.0050     1.2110 oh         1 PYG      -0.511600
     10 H4           1.9190    -0.0130     3.3430 ha         1 PYG       0.143000
     11 H5          -0.5430    -0.0250     3.3370 ha         1 PYG       0.138000
     12 H6          -1.7750    -0.0130     1.2020 ha         1 PYG       0.143000
     13 HO1         -1.0300     0.8670    -1.3340 ho         1 PYG       0.425000
     14 HO2          2.2320    -0.8760    -1.4550 ho         1 PYG       0.430000
     15 HO3          3.7490     0.8670     1.4350 ho         1 PYG       0.425000
@<TRIPOS>BOND
     1     1     2 ar
     2     1     6 ar
     3     1     7 1
     4     2     3 ar
     5     2     8 1
     6     3     4 ar
     7     3     9 1
     8     4     5 ar
     9     4    10 1
    10     5     6 ar
    11     5    11 1
    12     6    12 1
    13     7    13 1
    14     8    14 1
    15     9    15 1
@<TRIPOS>SUBSTRUCTURE
     1 PYG         1 TEMP              0 ****  ****    0 ROOT
