@<TRIPOS>MOLECULE
PYG
   15    15     1     0     0
SMALL
bcc


@<TRIPOS>ATOM
      1 C1         -0.0720    0.1140    0.0970 ca        1 PYG      0.153100
      2 C2          1.3330    0.1850    0.1040 ca        1 PYG     -0.094900
      3 C3          2.0280    0.1070    1.3250 ca        1 PYG      0.153100
      4 C4          1.3260   -0.0830    2.5240 ca        1 PYG     -0.186000
      5 C5         -0.0630   -0.1780    2.4900 ca        1 PYG     -0.068000
      6 C6         -0.7740   -0.0760    1.2960 ca        1 PYG     -0.186000
      7 O1         -0.7960    0.2050   -1.0650 oh        1 PYG     -0.491100
      8 O2          2.0210    0.4330   -1.0710 oh        1 PYG     -0.518100
      9 O3          3.3960    0.1910    1.3860 oh        1 PYG     -0.491100
     10 H4          1.8810   -0.1520    3.4690 ha        1 PYG      0.155000
     11 H5         -0.6140   -0.3290    3.4320 ha        1 PYG      0.140000
     12 H6         -1.8700   -0.1400    1.2760 ha        1 PYG      0.155000
     13 HO1        -0.1880    0.4870   -1.7690 ho        1 PYG      0.433000
     14 HO2         2.2360   -0.4370   -1.4440 ho        1 PYG      0.412000
     15 HO3         3.7130    0.4730    0.5120 ho        1 PYG      0.433000
@<TRIPOS>BOND
     1    1    2 ar  
     2    1    6 ar  
     3    1    7 1   
     4    2    3 ar  
     5    2    8 1   
     6    3    4 ar  
     7    3    9 1   
     8    4    5 ar  
     9    4   10 1   
    10    5    6 ar  
    11    5   11 1   
    12    6   12 1   
    13    7   13 1   
    14    8   14 1   
    15    9   15 1   
@<TRIPOS>SUBSTRUCTURE
     1 PYG         1 TEMP              0 ****  ****    0 ROOT
