@<TRIPOS>MOLECULE
molecule
   45    46     1     0     0
SMALL
bcc


@<TRIPOS>ATOM
      1 CM2          0.0000     0.0000     0.0000 c3         1 PYI      -0.118400
      2 C2A          1.5050     0.0000     0.0000 ca         1 PYI       0.684300
      3 N1A          2.1540     0.0000     1.1640 nb         1 PYI      -0.756000
      4 C6A          3.4990     0.0010     1.2170 ca         1 PYI       0.472200
      5 C5A          4.2420     0.0030     0.0280 ca         1 PYI      -0.369900
      6 C7A          5.7630     0.0080     0.0760 c3         1 PYI       0.109600
      7 N3           6.4350    -1.2890    -0.2750 na         1 PYI      -0.060100
      8 C2           5.7210    -2.4440    -0.3050 ca         1 PYI      -0.152300
      9 C1           6.3080    -3.6680    -0.6170 ca         1 PYI      -0.120000
     10 C6           7.6750    -3.7040    -0.9030 ca         1 PYI      -0.209000
     11 C5           8.4320    -2.5140    -0.8750 ca         1 PYI      -0.001300
     12 CM6          9.9080    -2.5910    -1.1780 c3         1 PYI      -0.055100
     13 CM7         10.6390    -2.9140     0.1310 c3         1 PYI       0.160400
     14 OM7         11.3070    -4.1700     0.0020 os         1 PYI      -0.523200
     15 PA          12.8190    -3.9830     0.5330 p5         1 PYI       1.267800
     16 O1A         13.4120    -5.3810     0.7500 o          1 PYI      -0.793500
     17 O2A         13.6620    -3.2400    -0.5370 o          1 PYI      -0.793500
     18 O3A         12.7660    -3.1950     1.9690 os         1 PYI      -0.660800
     19 PB          14.0300    -2.2090     2.2070 p5         1 PYI       1.205900
     20 O1B         14.3900    -2.2420     3.7270 o          1 PYI      -0.672833
     21 O2B         15.2860    -2.6720     1.3940 o          1 PYI      -0.672833
     22 O3B         13.6570    -0.7350     1.8090 o          1 PYI      -0.672833
     23 C4           7.7770    -1.2820    -0.5530 ca         1 PYI      -0.123600
     24 CM4          8.5710     0.0290    -0.5140 c3         1 PYI      -0.033800
     25 C4A          3.5190     0.0030    -1.1970 ca         1 PYI       0.728200
     26 N4A          4.1910     0.0050    -2.4080 nv         1 PYI      -1.066500
     27 N3A          2.1680     0.0020    -1.1620 nb         1 PYI      -0.775000
     28 HM21        -0.3610     0.4190     0.9310 hc         1 PYI       0.055033
     29 HM22        -0.3610     0.5970    -0.8290 hc         1 PYI       0.055033
     30 HM23        -0.3610    -1.0160    -0.1020 hc         1 PYI       0.055033
     31 H6A          4.0060     0.0010     2.1750 h4         1 PYI       0.038100
     32 H7A1         6.1190     0.7680    -0.6080 h1         1 PYI       0.058200
     33 H7A2         6.0670     0.2840     1.0790 h1         1 PYI       0.058200
     34 H2           4.6610    -2.4120    -0.0830 h4         1 PYI       0.134000
     35 H1           5.7160    -4.5750    -0.6350 ha         1 PYI       0.129000
     36 H6           8.1520    -4.6450    -1.1480 ha         1 PYI       0.155000
     37 HM61        10.0930    -3.3730    -1.9040 hc         1 PYI       0.064700
     38 HM62        10.2540    -1.6400    -1.5660 hc         1 PYI       0.064700
     39 HM71         9.9230    -2.9670     0.9420 h1         1 PYI       0.044700
     40 HM72        11.3660    -2.1390     0.3400 h1         1 PYI       0.044700
     41 HM41         8.3370     0.6200    -1.3910 hc         1 PYI       0.051700
     42 HM42         8.3060     0.5860     0.3770 hc         1 PYI       0.051700
     43 HM43         9.6320    -0.1910    -0.4990 hc         1 PYI       0.051700
     44 H4A1         4.6130     0.8470    -2.7440 hn         1 PYI       0.444300
     45 H4A2         4.1950    -0.8180    -2.9780 hn         1 PYI       0.444300
@<TRIPOS>BOND
     1     1     2 1
     2     1    28 1
     3     1    29 1
     4     1    30 1
     5     2     3 ar
     6     2    27 ar
     7     3     4 ar
     8     4     5 ar
     9     4    31 1
    10     5     6 1
    11     5    25 ar
    12     6     7 1
    13     6    32 1
    14     6    33 1
    15     7     8 1
    16     7    23 2
    17     8     9 ar
    18     8    34 1
    19     9    10 ar
    20     9    35 1
    21    10    11 ar
    22    10    36 1
    23    11    12 1
    24    11    23 ar
    25    12    13 1
    26    12    37 1
    27    12    38 1
    28    13    14 1
    29    13    39 1
    30    13    40 1
    31    14    15 1
    32    15    16 1
    33    15    17 1
    34    15    18 1
    35    18    19 1
    36    19    20 1
    37    19    21 1
    38    19    22 1
    39    23    24 1
    40    24    41 1
    41    24    42 1
    42    24    43 1
    43    25    26 1
    44    25    27 ar
    45    26    44 1
    46    26    45 1
@<TRIPOS>SUBSTRUCTURE
     1 PYI         1 TEMP              0 ****  ****    0 ROOT
