@<TRIPOS>MOLECULE
molecule
   18    18     1     0     0
SMALL
bcc


@<TRIPOS>ATOM
      1 CB           0.0000     0.0000     0.0000 c3         1 PYJ      -0.039100
      2 CX           1.5300     0.0000     0.0000 c3         1 PYJ      -0.087100
      3 CG          -0.5030     0.0000     1.4210 ca         1 PYJ      -0.080300
      4 CD1         -0.7320     1.1980     2.0730 ca         1 PYJ      -0.126000
      5 CD2         -0.7370    -1.1970     2.0710 ca         1 PYJ      -0.126000
      6 CE1         -1.1920     1.1980     3.3760 ca         1 PYJ      -0.126000
      7 CE2         -1.1990    -1.1970     3.3740 ca         1 PYJ      -0.126000
      8 CZ          -1.4240     0.0000     4.0280 ca         1 PYJ      -0.133000
      9 HCB1        -0.3610     0.8840    -0.5110 hc         1 PYJ       0.046700
     10 HCB2        -0.3610    -0.8840    -0.5110 hc         1 PYJ       0.046700
     11 HCX1         1.8910    -0.1200    -1.0140 hc         1 PYJ       0.036033
     12 HCX2         1.8910     0.9380     0.4040 hc         1 PYJ       0.036033
     13 HCX3         1.8910    -0.8190     0.6110 hc         1 PYJ       0.036033
     14 HCD1        -0.5510     2.1360     1.5620 ha         1 PYJ       0.129000
     15 HCD2        -0.5610    -2.1360     1.5580 ha         1 PYJ       0.129000
     16 HCE1        -1.3700     2.1360     3.8870 ha         1 PYJ       0.128000
     17 HCE2        -1.3810    -2.1350     3.8840 ha         1 PYJ       0.128000
     18 HCZ1        -1.7840     0.0000     5.0490 ha         1 PYJ       0.128000
@<TRIPOS>BOND
     1     1     2 1
     2     1     3 1
     3     1     9 1
     4     1    10 1
     5     2    11 1
     6     2    12 1
     7     2    13 1
     8     3     4 ar
     9     3     5 ar
    10     4     6 ar
    11     4    14 1
    12     5     7 ar
    13     5    15 1
    14     6     8 ar
    15     6    16 1
    16     7     8 ar
    17     7    17 1
    18     8    18 1
@<TRIPOS>SUBSTRUCTURE
     1 PYJ         1 TEMP              0 ****  ****    0 ROOT
