@<TRIPOS>MOLECULE
PYJ
   18    18     1     0     0
SMALL
bcc


@<TRIPOS>ATOM
      1 CB          0.0220   -0.0050    0.0200 c3        1 PYJ     -0.038100
      2 CX          1.5320    0.0010   -0.0300 c3        1 PYJ     -0.089100
      3 CG         -0.4880   -0.0020    1.4190 ca        1 PYJ     -0.077300
      4 CD1        -0.7270    1.2070    2.0820 ca        1 PYJ     -0.128000
      5 CD2        -0.7350   -1.2080    2.0840 ca        1 PYJ     -0.128000
      6 CE1        -1.2060    1.2090    3.3910 ca        1 PYJ     -0.128000
      7 CE2        -1.2140   -1.2040    3.3930 ca        1 PYJ     -0.128000
      8 CZ         -1.4500    0.0040    4.0490 ca        1 PYJ     -0.133000
      9 HCB1       -0.3640   -0.9110   -0.5190 hc        1 PYJ      0.045700
     10 HCB2       -0.3710    0.8960   -0.5250 hc        1 PYJ      0.045700
     11 HCX1        1.9450   -0.9020    0.4820 hc        1 PYJ      0.036033
     12 HCX2        1.8800   -0.0010   -1.0910 hc        1 PYJ      0.036033
     13 HCX3        1.9380    0.9090    0.4770 hc        1 PYJ      0.036033
     14 HCD1       -0.5360    2.1590    1.5650 ha        1 PYJ      0.130000
     15 HCD2       -0.5500   -2.1630    1.5700 ha        1 PYJ      0.130000
     16 HCE1       -1.3920    2.1640    3.9050 ha        1 PYJ      0.130000
     17 HCE2       -1.4060   -2.1560    3.9090 ha        1 PYJ      0.130000
     18 HCZ1       -1.8290    0.0060    5.0810 ha        1 PYJ      0.130000
@<TRIPOS>BOND
     1    1    2 1   
     2    1    3 1   
     3    1    9 1   
     4    1   10 1   
     5    2   11 1   
     6    2   12 1   
     7    2   13 1   
     8    3    4 ar  
     9    3    5 ar  
    10    4    6 ar  
    11    4   14 1   
    12    5    7 ar  
    13    5   15 1   
    14    6    8 ar  
    15    6   16 1   
    16    7    8 ar  
    17    7   17 1   
    18    8   18 1   
@<TRIPOS>SUBSTRUCTURE
     1 PYJ         1 TEMP              0 ****  ****    0 ROOT
