@<TRIPOS>MOLECULE
molecule
   12    11     1     0     0
SMALL
bcc


@<TRIPOS>ATOM
      1 C1           0.0000     0.0000     0.0000 c          1 PYM       0.377100
      2 N1           1.3470     0.0000     0.0000 nz         1 PYM      -0.683400
      3 O1          -0.6060     0.0000     1.0510 o          1 PYM      -0.355100
      4 C2          -0.7470     0.0000    -1.2900 c          1 PYM       0.502100
      5 O2          -0.1430     0.0000    -2.3350 o          1 PYM      -0.444100
      6 C3          -2.2530    -0.0000    -1.2880 c3         1 PYM      -0.164100
      7 HN12         1.6810     0.0000     0.9440 hn         1 PYM       0.486467
      8 HN11         1.6810     0.8170    -0.4720 hn         1 PYM       0.486467
      9 H33         -2.6130    -0.8850    -0.7770 hc         1 PYM       0.102700
     10 H32         -2.6150    -0.0000    -2.3090 hc         1 PYM       0.102700
     11 H31         -2.6130     0.8850    -0.7770 hc         1 PYM       0.102700
     12 H13          1.6810    -0.7750    -0.5380 hn         1 PYM       0.486467
@<TRIPOS>BOND
     1     1     2 1
     2     1     3 2
     3     1     4 1
     4     2     7 1
     5     2     8 1
     6     4     5 2
     7     4     6 1
     8     6     9 1
     9     6    10 1
    10     6    11 1
    11    12     2 1
@<TRIPOS>SUBSTRUCTURE
     1 PYM         1 TEMP              0 ****  ****    0 ROOT
