@<TRIPOS>MOLECULE
molecule
   67    71     1     0     0
SMALL
bcc


@<TRIPOS>ATOM
      1 C            0.0000     0.0000     0.0000 ca         1 PYN      -0.177800
      2 C1           1.4670     0.0000     0.0000 ca         1 PYN       0.459100
      3 C2          -0.6900     0.0010    -1.2150 ca         1 PYN      -0.053000
      4 C3           0.0610     0.0010    -2.3930 ca         1 PYN      -0.177800
      5 C4           1.5260     0.0010    -2.3180 ca         1 PYN       0.459100
      6 C5           2.2600    -0.0030    -3.5200 ca         1 PYN      -0.205300
      7 C6           1.5950     0.0040    -4.7190 ca         1 PYN       0.075100
      8 C7           0.1960     0.0040    -4.7800 ca         1 PYN      -0.141000
      9 C8          -0.5630     0.0030    -3.6560 ca         1 PYN      -0.090500
     10 C9          -0.6880    -0.0000     1.2300 ca         1 PYN      -0.090500
     11 C10          0.0120    -0.0000     2.3920 ca         1 PYN      -0.141000
     12 C11          1.4130     0.0000     2.4010 ca         1 PYN       0.075100
     13 C12          2.1380     0.0000     1.2380 ca         1 PYN      -0.205300
     14 N            2.1470     0.0000    -1.1420 nb         1 PYN      -0.682000
     15 N13          2.3310     0.0060    -5.9050 ns         1 PYN      -0.480600
     16 C14          3.5000     0.6740    -5.9720 c          1 PYN       0.657100
     17 C15          4.3510     0.5760    -7.2120 c3         1 PYN      -0.160900
     18 C16          5.6160     1.4160    -7.0270 c3         1 PYN       0.149800
     19 O14          3.8670     1.3480    -5.0350 o          1 PYN      -0.589100
     20 N1           2.0870     0.0010     3.6240 ns         1 PYN      -0.480600
     21 C17          1.5670    -0.6570     4.6790 c          1 PYN       0.657100
     22 C18          2.2280    -0.5550     6.0300 c3         1 PYN      -0.160900
     23 C19          1.4450    -1.3900     7.0450 c3         1 PYN       0.149800
     24 O1           0.5700    -1.3300     4.5420 o          1 PYN      -0.589100
     25 C21          7.6440     2.1480    -7.9910 c3         1 PYN       0.133550
     26 N22          6.4490     1.3200    -8.2340 n3         1 PYN      -0.684100
     27 C23          6.8690    -0.0910    -8.3500 c3         1 PYN       0.133550
     28 C24          8.8620     1.2000    -7.9820 c3         1 PYN      -0.099150
     29 C25          8.3550    -0.0270    -8.7820 c3         1 PYN      -0.099150
     30 C26          1.2900    -2.1130     9.2870 c3         1 PYN       0.133550
     31 N27          2.0890    -1.2900     8.3610 n3         1 PYN      -0.684100
     32 C28          3.4290    -1.9010     8.2260 c3         1 PYN       0.133550
     33 C29          2.1910    -3.2720     9.7630 c3         1 PYN      -0.099150
     34 C30          3.6220    -2.7230     9.5240 c3         1 PYN      -0.099150
     35 H21         -1.7400    -0.2640    -1.2430 ha         1 PYN       0.141000
     36 H51          3.3430    -0.0020    -3.4970 ha         1 PYN       0.163500
     37 H71         -0.2920     0.0100    -5.7480 ha         1 PYN       0.144500
     38 H81         -1.6440     0.0020    -3.7290 ha         1 PYN       0.136500
     39 H91         -1.7710    -0.0010     1.2480 ha         1 PYN       0.136500
     40 H101        -0.5240     0.0000     3.3340 ha         1 PYN       0.144500
     41 H121         3.2210     0.0010     1.2710 ha         1 PYN       0.163500
     42 HN1          2.0000    -0.5060    -6.6990 hn         1 PYN       0.326000
     43 H151         4.6260    -0.4580    -7.3800 hc         1 PYN       0.070450
     44 H152         3.7940     0.9450    -8.0640 hc         1 PYN       0.070450
     45 H161         5.3420     2.4500    -6.8590 h1         1 PYN       0.053950
     46 H162         6.1730     1.0470    -6.1740 h1         1 PYN       0.053950
     47 HN11         3.0040     0.3960     3.6870 hn         1 PYN       0.326000
     48 H181         2.2420     0.4800     6.3490 hc         1 PYN       0.070450
     49 H182         3.2440    -0.9260     5.9640 hc         1 PYN       0.070450
     50 H191         1.4320    -2.4260     6.7270 h1         1 PYN       0.053950
     51 H192         0.4290    -1.0200     7.1100 h1         1 PYN       0.053950
     52 H212         7.7530     2.8780    -8.7840 h1         1 PYN       0.048325
     53 H231         6.2800    -0.5980    -9.1050 h1         1 PYN       0.048325
     54 H232         6.7780    -0.5900    -7.3930 h1         1 PYN       0.048325
     55 H241         9.1160     0.9160    -6.9680 hc         1 PYN       0.051325
     56 H242         9.7060     1.6590    -8.4830 hc         1 PYN       0.051325
     57 H251         8.8830    -0.9250    -8.4840 hc         1 PYN       0.051325
     58 H252         8.4400     0.1460    -9.8480 hc         1 PYN       0.051325
     59 H261         0.9810    -1.5150    10.1360 h1         1 PYN       0.048325
     60 H262         0.4230    -2.5080     8.7720 h1         1 PYN       0.048325
     61 H281         3.4590    -2.5510     7.3610 h1         1 PYN       0.048325
     62 H282         4.1870    -1.1300     8.1540 h1         1 PYN       0.048325
     63 H291         2.0300    -3.4730    10.8160 hc         1 PYN       0.051325
     64 H292         2.0180    -4.1590     9.1660 hc         1 PYN       0.051325
     65 H301         4.3240    -3.5330     9.3660 hc         1 PYN       0.051325
     66 H302         3.9320    -2.0850    10.3430 hc         1 PYN       0.051325
     67 H211         7.5590     2.6460    -7.0330 h1         1 PYN       0.048325
@<TRIPOS>BOND
     1     1     2 ar
     2     1     3 ar
     3     1    10 ar
     4     2    13 ar
     5     2    14 ar
     6     3     4 ar
     7     3    35 1
     8     4     5 ar
     9     4     9 ar
    10     5     6 ar
    11     5    14 ar
    12     6     7 ar
    13     6    36 1
    14     7     8 ar
    15     7    15 1
    16     8     9 ar
    17     8    37 1
    18     9    38 1
    19    10    11 ar
    20    10    39 1
    21    11    12 ar
    22    11    40 1
    23    12    13 ar
    24    12    20 1
    25    13    41 1
    26    15    16 1
    27    15    42 1
    28    16    17 1
    29    16    19 2
    30    17    18 1
    31    17    43 1
    32    17    44 1
    33    18    26 1
    34    18    45 1
    35    18    46 1
    36    20    21 1
    37    20    47 1
    38    21    22 1
    39    21    24 2
    40    22    23 1
    41    22    48 1
    42    22    49 1
    43    23    31 1
    44    23    50 1
    45    23    51 1
    46    25    26 1
    47    25    28 1
    48    25    67 1
    49    25    52 1
    50    26    27 1
    51    27    29 1
    52    27    53 1
    53    27    54 1
    54    28    29 1
    55    28    55 1
    56    28    56 1
    57    29    57 1
    58    29    58 1
    59    30    31 1
    60    30    33 1
    61    30    59 1
    62    30    60 1
    63    31    32 1
    64    32    34 1
    65    32    61 1
    66    32    62 1
    67    33    34 1
    68    33    63 1
    69    33    64 1
    70    34    65 1
    71    34    66 1
@<TRIPOS>SUBSTRUCTURE
     1 PYN         1 TEMP              0 ****  ****    0 ROOT
