@<TRIPOS>MOLECULE
PYP
   45    49     1     0     0
SMALL
bcc


@<TRIPOS>ATOM
      1 P           0.7930    1.5760    0.9350 p5        1 PYP      1.330900
      2 O1P         1.2040    2.9740    0.5160 o         1 PYP     -0.931500
      3 O2P        -0.1380    1.5360    2.1140 o         1 PYP     -0.931500
      4 O5'        -0.2990    1.2350   -0.3820 os        1 PYP     -0.557200
      5 C5'        -1.3940    2.0530   -0.4140 c3        1 PYP      0.228400
      6 C4'        -1.2570    3.1170   -1.5290 c3        1 PYP      0.059100
      7 O4'        -2.5680    3.3840   -2.0890 os        1 PYP     -0.443600
      8 C1'        -2.8710    4.7750   -2.0460 c3        1 PYP      0.178400
      9 C1         -4.3510    4.1000   -0.1370 ca        1 PYP     -0.097000
     10 C2         -5.4490    4.2740    0.6940 ca        1 PYP     -0.096000
     11 C3         -7.4520    5.5770    1.3650 ca        1 PYP     -0.081000
     12 C4         -8.2700    6.6480    1.2010 ca        1 PYP     -0.162000
     13 C5         -8.8380    8.7460    0.0020 ca        1 PYP     -0.147000
     14 C6         -8.5500    9.6840   -0.9850 ca        1 PYP     -0.135000
     15 C7         -7.4330    9.5350   -1.8030 ca        1 PYP     -0.146000
     16 C8         -5.4120    8.2500   -2.4620 ca        1 PYP     -0.168000
     17 C9         -4.6030    7.1730   -2.3000 ca        1 PYP     -0.071000
     18 C10        -4.0560    5.0250   -1.1490 ca        1 PYP     -0.026300
     19 C11        -4.8720    6.1600   -1.3140 ca        1 PYP     -0.066000
     20 C12        -6.2980    5.3790    0.5340 ca        1 PYP     -0.074000
     21 C13        -8.0060    7.6330    0.1870 ca        1 PYP     -0.017000
     22 C14        -6.5810    8.4350   -1.6450 ca        1 PYP     -0.012000
     23 C15        -6.0080    6.3320   -0.4760 ca        1 PYP     -0.014000
     24 C16        -6.8670    7.4680   -0.6450 ca        1 PYP     -0.016000
     25 C2'        -1.6260    5.5350   -1.5770 c3        1 PYP     -0.117400
     26 C3'        -0.6690    4.4570   -1.0430 c3        1 PYP      0.160100
     27 O3'         0.6140    4.6830   -1.5800 oh        1 PYP     -0.674800
     28 O3P         1.8290    0.5010    0.8200 o         1 PYP     -0.931500
     29 H5'1       -2.3160    1.4440   -0.6590 h1        1 PYP     -0.005300
     30 H5'2       -1.5520    2.5610    0.5810 h1        1 PYP     -0.005300
     31 H4'        -0.6410    2.7020   -2.3710 h1        1 PYP      0.068700
     32 H1'        -3.1520    5.0530   -3.1020 h1        1 PYP      0.032700
     33 H1         -3.6790    3.2250   -0.0130 ha        1 PYP      0.202000
     34 H2         -5.6540    3.5390    1.4880 ha        1 PYP      0.136000
     35 H3         -7.6510    4.8260    2.1460 ha        1 PYP      0.125000
     36 H4         -9.1520    6.7950    1.8390 ha        1 PYP      0.116000
     37 H5         -9.7200    8.8740    0.6450 ha        1 PYP      0.117000
     38 H6         -9.2110   10.5530   -1.1190 ha        1 PYP      0.111000
     39 H7         -7.2120   10.2840   -2.5760 ha        1 PYP      0.119000
     40 H8         -5.1920    9.0170   -3.2190 ha        1 PYP      0.119000
     41 H9         -3.6970    7.0570   -2.9180 ha        1 PYP      0.142000
     42 H2'2       -1.1570    6.0770   -2.4350 hc        1 PYP      0.041200
     43 H2'1       -1.8720    6.2780   -0.7840 hc        1 PYP      0.041200
     44 H3'        -0.6140    4.4810    0.0810 h1        1 PYP      0.099700
     45 H3T         1.2190    4.1240   -1.0390 ho        1 PYP      0.500000
@<TRIPOS>BOND
     1    1    2 1   
     2    1    3 1   
     3    1    4 1   
     4    1   28 1   
     5    4    5 1   
     6    5    6 1   
     7    5   29 1   
     8    5   30 1   
     9    6    7 1   
    10    6   26 1   
    11    6   31 1   
    12    7    8 1   
    13    8   18 1   
    14    8   25 1   
    15    8   32 1   
    16    9   10 ar  
    17    9   18 ar  
    18    9   33 1   
    19   10   20 ar  
    20   10   34 1   
    21   11   12 ar  
    22   11   20 ar  
    23   11   35 1   
    24   12   21 ar  
    25   12   36 1   
    26   13   14 ar  
    27   13   21 ar  
    28   13   37 1   
    29   14   15 ar  
    30   14   38 1   
    31   15   22 ar  
    32   15   39 1   
    33   16   17 ar  
    34   16   22 ar  
    35   16   40 1   
    36   17   19 ar  
    37   17   41 1   
    38   18   19 ar  
    39   19   23 ar  
    40   20   23 ar  
    41   21   24 ar  
    42   22   24 ar  
    43   23   24 ar  
    44   25   26 1   
    45   25   42 1   
    46   25   43 1   
    47   26   27 1   
    48   26   44 1   
    49   27   45 1   
@<TRIPOS>SUBSTRUCTURE
     1 PYP         1 TEMP              0 ****  ****    0 ROOT
