@<TRIPOS>MOLECULE
molecule
   45    49     1     0     0
SMALL
bcc


@<TRIPOS>ATOM
      1 P            0.0000     0.0000     0.0000 p5         1 PYP       1.175900
      2 O1P          1.4800     0.0000     0.0000 o          1 PYP      -0.907500
      3 O2P         -0.5360     0.0000     1.5180 o          1 PYP      -0.907500
      4 O5'         -0.5360     1.3160    -0.7580 os         1 PYP      -0.563200
      5 C5'         -0.1470     2.6400    -0.3890 c3         1 PYP       0.225400
      6 C4'         -0.8360     3.6490    -1.3090 c3         1 PYP       0.118100
      7 O4'         -2.2550     3.6300    -1.0810 os         1 PYP      -0.365600
      8 C1'         -2.7310     4.9790    -1.2700 c3         1 PYP       0.165400
      9 C1          -4.4240     4.3150     0.5640 ca         1 PYP      -0.077000
     10 C2          -5.5740     4.4820     1.1830 ca         1 PYP      -0.134000
     11 C3          -7.7880     5.7540     1.4110 ca         1 PYP      -0.098000
     12 C4          -8.5990     6.7090     0.9990 ca         1 PYP      -0.141000
     13 C5          -9.1040     8.6390    -0.6120 ca         1 PYP      -0.121000
     14 C6          -8.7330     9.3910    -1.6280 ca         1 PYP      -0.156000
     15 C7          -7.4350     9.1680    -2.2920 ca         1 PYP      -0.148000
     16 C8          -5.3370     7.9600    -2.5050 ca         1 PYP      -0.174000
     17 C9          -4.5320     7.0100    -2.0960 ca         1 PYP      -0.080000
     18 C10         -4.0500     5.1800    -0.5700 ca         1 PYP      -0.011300
     19 C11         -4.8710     6.1270    -0.9690 ca         1 PYP      -0.054000
     20 C12         -6.4950     5.5420     0.7400 ca         1 PYP      -0.042000
     21 C13         -8.2140     7.5670    -0.1350 ca         1 PYP      -0.031000
     22 C14         -6.6400     8.2110    -1.8680 ca         1 PYP      -0.003000
     23 C15         -6.1550     6.3080    -0.2700 ca         1 PYP      -0.014000
     24 C16         -7.0610     7.3740    -0.7300 ca         1 PYP      -0.008000
     25 C2'         -1.6280     5.8480    -0.6140 c3         1 PYP      -0.128400
     26 C3'         -0.3400     5.0740    -0.9890 c3         1 PYP       0.102100
     27 O3'          0.2790     5.6580    -2.1370 oh         1 PYP      -0.611800
     28 O3P         -0.5380    -1.3130    -0.7600 o          1 PYP      -0.907500
     29 H5'1        -0.4380     2.8290     0.6370 h1         1 PYP       0.018700
     30 H5'2         0.9280     2.7400    -0.4830 h1         1 PYP       0.018700
     31 H4'         -0.6270     3.4120    -2.3450 h1         1 PYP       0.069700
     32 H1'         -2.8140     5.2070    -2.3260 h1         1 PYP       0.050700
     33 H1          -3.7470     3.5340     0.8890 ha         1 PYP       0.194000
     34 H2          -5.8410     3.8420     2.0160 ha         1 PYP       0.139000
     35 H3          -8.0730     5.1260     2.2460 ha         1 PYP       0.129000
     36 H4          -9.5500     6.8620     1.4940 ha         1 PYP       0.120000
     37 H5         -10.0750     8.8880    -0.2010 ha         1 PYP       0.118000
     38 H6          -9.3640    10.1880    -2.0030 ha         1 PYP       0.114000
     39 H7          -7.3180     9.8790    -3.1010 ha         1 PYP       0.123000
     40 H8          -4.9940     8.6470    -3.2690 ha         1 PYP       0.118000
     41 H9          -3.9510     6.9220    -3.0060 ha         1 PYP       0.147000
     42 H2'2        -1.6160     6.8420    -1.0430 hc         1 PYP       0.049700
     43 H2'1        -1.7550     5.8840     0.4610 hc         1 PYP       0.049700
     44 H3'          0.3450     5.0540    -0.1500 h1         1 PYP       0.052700
     45 H3T          1.0870     6.0710    -1.8820 ho         1 PYP       0.388000
@<TRIPOS>BOND
     1     1     2 1
     2     1     3 1
     3     1     4 1
     4     1    28 1
     5     4     5 1
     6     5     6 1
     7     5    29 1
     8     5    30 1
     9     6     7 1
    10     6    26 1
    11     6    31 1
    12     7     8 1
    13     8    18 1
    14     8    25 1
    15     8    32 1
    16     9    10 ar
    17     9    18 ar
    18     9    33 1
    19    10    20 ar
    20    10    34 1
    21    11    12 ar
    22    11    20 ar
    23    11    35 1
    24    12    21 ar
    25    12    36 1
    26    13    14 ar
    27    13    21 ar
    28    13    37 1
    29    14    15 ar
    30    14    38 1
    31    15    22 ar
    32    15    39 1
    33    16    17 ar
    34    16    22 ar
    35    16    40 1
    36    17    19 ar
    37    17    41 1
    38    18    19 ar
    39    19    23 ar
    40    20    23 ar
    41    21    24 ar
    42    22    24 ar
    43    23    24 ar
    44    25    26 1
    45    25    42 1
    46    25    43 1
    47    26    27 1
    48    26    44 1
    49    27    45 1
@<TRIPOS>SUBSTRUCTURE
     1 PYP         1 TEMP              0 ****  ****    0 ROOT
