@<TRIPOS>MOLECULE
PYQ
   24    26     1     0     0
SMALL
bcc


@<TRIPOS>ATOM
      1 C1           0.0000     0.0000     0.0000 ca         1 PYQ      -0.067000
      2 C2           1.3730     0.0000     0.0000 ca         1 PYQ      -0.111300
      3 C3           2.0500     0.0000     1.2200 ca         1 PYQ      -0.091400
      4 C5           1.3820    -0.0770     2.4190 ca         1 PYQ      -0.143300
      5 C6           2.4180    -0.1450     3.5160 c3         1 PYQ       0.027900
      6 C7           3.7750    -0.0930     2.7810 c3         1 PYQ       0.049000
      7 N8           3.4450     0.0450     1.3710 n          1 PYQ      -0.008000
      8 C9           4.2200     0.2210     0.2810 c          1 PYQ       0.635500
      9 O10          5.4150     0.0170     0.3260 o          1 PYQ      -0.661500
     10 C11          3.5610     0.6770    -0.9990 c3         1 PYQ      -0.097400
     11 C12          2.2160     0.0000    -1.2440 c3         1 PYQ       0.045900
     12 C13          0.0000    -0.0850     2.4110 ca         1 PYQ      -0.051000
     13 C14         -0.6820    -0.0380     1.2080 ca         1 PYQ      -0.123000
     14 H11         -0.5460     0.0370    -0.9350 ha         1 PYQ       0.107000
     15 H61          2.3340     0.7740     4.0840 hc         1 PYQ       0.039700
     16 H62          2.3400    -1.1300     3.9600 hc         1 PYQ       0.039700
     17 H71          4.2310    -1.0680     2.9000 h1         1 PYQ       0.036200
     18 H72          4.2560     0.8300     3.0800 h1         1 PYQ       0.036200
     19 H111         4.2210     0.4510    -1.8290 hc         1 PYQ       0.040200
     20 H112         3.4080     1.7480    -0.9490 hc         1 PYQ       0.040200
     21 H121         1.6900     0.5330    -2.0270 hc         1 PYQ       0.024700
     22 H122         2.3870    -1.0230    -1.5560 hc         1 PYQ       0.024700
     23 H131        -0.5480    -0.1140     3.3450 ha         1 PYQ       0.103000
     24 H141        -1.7650    -0.0300     1.2090 ha         1 PYQ       0.105000
@<TRIPOS>BOND
     1     1     2 ar  
     2     1    13 ar  
     3     1    14 1   
     4     2     3 ar  
     5     2    11 1   
     6     3     4 ar  
     7     3     7 1   
     8     4     5 1   
     9     4    12 ar  
    10     5     6 1   
    11     5    15 1   
    12     5    16 1   
    13     6     7 1   
    14     6    17 1   
    15     6    18 1   
    16     7     8 1   
    17     8     9 2   
    18     8    10 1   
    19    10    11 1   
    20    10    19 1   
    21    10    20 1   
    22    11    21 1   
    23    11    22 1   
    24    12    13 ar  
    25    12    23 1   
    26    13    24 1   
@<TRIPOS>SUBSTRUCTURE
     1 PYQ         1 TEMP              0 ****  ****    0 ROOT
