@<TRIPOS>MOLECULE
molecule
    9     8     1     0     0
SMALL
bcc


@<TRIPOS>ATOM
      1 C1           0.0000     0.0000     0.0000 c          1 PYR       0.804600
      2 O1           1.2120     0.0000     0.0000 o          1 PYR      -0.818800
      3 O2          -0.6730     0.0000     1.1650 o          1 PYR      -0.818800
      4 C2          -0.7460     0.0080    -1.2910 c          1 PYR       0.469100
      5 O3          -1.9540     0.0080    -1.2900 o          1 PYR      -0.555100
      6 C3           0.0080     0.0140    -2.5970 c3         1 PYR      -0.198100
      7 H31          0.6310     0.8990    -2.6490 hc         1 PYR       0.038700
      8 H32          0.6300    -0.8700    -2.6590 hc         1 PYR       0.038700
      9 H33         -0.6960     0.0190    -3.4200 hc         1 PYR       0.038700
@<TRIPOS>BOND
     1     1     2 1
     2     1     3 1
     3     1     4 1
     4     4     5 2
     5     4     6 1
     6     6     7 1
     7     6     8 1
     8     6     9 1
@<TRIPOS>SUBSTRUCTURE
     1 PYR         1 TEMP              0 ****  ****    0 ROOT
