@<TRIPOS>MOLECULE
PYR
    9     8     1     0     0
SMALL
bcc


@<TRIPOS>ATOM
      1 C1          0.0350   -0.1710   -0.0090 c         1 PYR      0.853600
      2 O1          0.8240   -1.1130    0.2700 o         1 PYR     -0.819300
      3 O2         -0.1230    0.8800    0.6680 o         1 PYR     -0.819300
      4 C2         -0.7620   -0.2880   -1.3160 c         1 PYR      0.466100
      5 O3         -1.8840   -0.8000   -1.4170 o         1 PYR     -0.598100
      6 C3         -0.0620    0.2810   -2.5150 c3        1 PYR     -0.206100
      7 H31        -0.6710    0.1770   -3.4440 hc        1 PYR      0.040700
      8 H32         0.1450    1.3630   -2.3290 hc        1 PYR      0.040700
      9 H33         0.9100   -0.2510   -2.6490 hc        1 PYR      0.040700
@<TRIPOS>BOND
     1    1    2 1   
     2    1    3 1   
     3    1    4 1   
     4    4    5 2   
     5    4    6 1   
     6    6    7 1   
     7    6    8 1   
     8    6    9 1   
@<TRIPOS>SUBSTRUCTURE
     1 PYR         1 TEMP              0 ****  ****    0 ROOT
