@<TRIPOS>MOLECULE
molecule
   12    12     1     0     0
SMALL
bcc


@<TRIPOS>ATOM
      1 N1           0.0000     0.0000     0.0000 nb         1 PYS      -0.670000
      2 C2           1.3240     0.0000     0.0000 ca         1 PYS       0.541600
      3 C3           2.0320     0.0000     1.1970 ca         1 PYS      -0.205300
      4 C4           1.3340    -0.0050     2.3900 ca         1 PYS      -0.099000
      5 C5          -0.0530    -0.0110     2.3470 ca         1 PYS      -0.240300
      6 C6          -0.6910    -0.0100     1.1230 ca         1 PYS       0.414200
      7 S2           2.1970     0.0060    -1.5310 sh         1 PYS      -0.419100
      8 H3           3.1150     0.0020     1.1940 ha         1 PYS       0.153000
      9 H4           1.8580    -0.0050     3.3380 ha         1 PYS       0.142000
     10 H5          -0.6290    -0.0170     3.2650 ha         1 PYS       0.141000
     11 H6          -1.7740    -0.0130     1.0850 h4         1 PYS       0.027100
     12 HS2          1.9460    -1.1190    -2.1880 hs         1 PYS       0.214800
@<TRIPOS>BOND
     1     1     2 ar
     2     1     6 ar
     3     2     3 ar
     4     2     7 1
     5     3     4 ar
     6     3     8 1
     7     4     5 ar
     8     4     9 1
     9     5     6 ar
    10     5    10 1
    11     6    11 1
    12     7    12 1
@<TRIPOS>SUBSTRUCTURE
     1 PYS         1 TEMP              0 ****  ****    0 ROOT
