@<TRIPOS>MOLECULE
PYS
   12    12     1     0     0
SMALL
bcc


@<TRIPOS>ATOM
      1 N1          0.0240   -0.2120   -0.0570 nb        1 PYS     -0.687000
      2 C2          1.3770   -0.1790    0.0050 ca        1 PYS      0.509600
      3 C3          2.0830   -0.0470    1.2220 ca        1 PYS     -0.235300
      4 C4          1.3570    0.0530    2.4070 ca        1 PYS     -0.078000
      5 C5         -0.0380    0.0200    2.3570 ca        1 PYS     -0.257300
      6 C6         -0.6550   -0.1140    1.1000 ca        1 PYS      0.412200
      7 S2          2.3320   -0.2960   -1.4030 sh        1 PYS     -0.344100
      8 H3          3.1820   -0.0250    1.2220 ha        1 PYS      0.154000
      9 H4          1.8800    0.1560    3.3700 ha        1 PYS      0.141000
     10 H5         -0.6430    0.0960    3.2690 ha        1 PYS      0.145000
     11 H6         -1.7560   -0.1440    1.0080 h4        1 PYS      0.024100
     12 HS2         1.4030   -0.4060   -2.3430 hs        1 PYS      0.216800
@<TRIPOS>BOND
     1    1    2 ar  
     2    1    6 ar  
     3    2    3 ar  
     4    2    7 1   
     5    3    4 ar  
     6    3    8 1   
     7    4    5 ar  
     8    4    9 1   
     9    5    6 ar  
    10    5   10 1   
    11    6   11 1   
    12    7   12 1   
@<TRIPOS>SUBSTRUCTURE
     1 PYS         1 TEMP              0 ****  ****    0 ROOT
