@<TRIPOS>MOLECULE
molecule
   14    13     1     0     0
SMALL
bcc


@<TRIPOS>ATOM
      1 N            0.0000     0.0000     0.0000 nz         1 PYT      -0.656400
      2 CA           1.3990     0.0000     0.0000 ce         1 PYT      -0.203200
      3 CB           2.0660     0.0000     1.1560 c2         1 PYT       0.011000
      4 C            2.1380    -0.0000    -1.2760 c          1 PYT       0.506300
      5 NT           3.4840    -0.0000    -1.2770 nz         1 PYT      -0.676400
      6 O            1.5300    -0.0000    -2.3290 o          1 PYT      -0.350100
      7 HN1         -0.3340    -0.8170    -0.4720 hn         1 PYT       0.491133
      8 HN2         -0.3340     0.8170    -0.4720 hn         1 PYT       0.491133
      9 HC1          3.1490    -0.0000     1.1570 ha         1 PYT       0.190500
     10 HC2          1.5240     0.0000     2.0940 ha         1 PYT       0.190500
     11 HT1          3.8180     0.8170    -0.8060 hn         1 PYT       0.504800
     12 HT2          3.8180    -0.8170    -0.8050 hn         1 PYT       0.504800
     13 HN3         -0.3340     0.1020     0.9380 hn         1 PYT       0.491133
     14 HT3          3.8170    -0.0440    -2.2200 hn         1 PYT       0.504800
@<TRIPOS>BOND
     1     1     2 1
     2     1     7 1
     3     1     8 1
     4     2     3 2
     5     2     4 1
     6     3     9 1
     7     3    10 1
     8     4     5 1
     9     4     6 2
    10     5    11 1
    11     5    12 1
    12    13     1 1
    13    14     5 1
@<TRIPOS>SUBSTRUCTURE
     1 PYT         1 TEMP              0 ****  ****    0 ROOT
