@<TRIPOS>MOLECULE
PYT
   14    13     1     0     0
SMALL
bcc


@<TRIPOS>ATOM
      1 N            0.0000     0.0000     0.0000 nz         1 PYT       0.301600
      2 CA           1.3990     0.0000     0.0000 ce         1 PYT      -0.469200
      3 CB           2.0660     0.0000     1.1560 c2         1 PYT       0.179000
      4 C            2.1380    -0.0000    -1.2760 c          1 PYT       0.361300
      5 NT           3.4840    -0.0000    -1.2770 nz         1 PYT       0.217600
      6 O            1.5300    -0.0000    -2.3290 o          1 PYT      -0.356100
      7 HN1         -0.3340     0.0000     0.9440 hn         1 PYT       0.235800
      8 HN2         -0.3340     0.8170    -0.4720 hn         1 PYT       0.235800
      9 HC1          1.5240     0.0000     2.0940 ha         1 PYT       0.127000
     10 HC2          3.1490     0.0000     1.1570 ha         1 PYT       0.127000
     11 HT1          3.8180    -0.8170    -0.8050 hn         1 PYT       0.268133
     12 HT2          3.8180     0.8170    -0.8060 hn         1 PYT       0.268133
     13 HN3         -0.3340    -0.7610    -0.5570 hn         1 PYT       0.235800
     14 HT3          3.8170     0.1210    -2.2130 hn         1 PYT       0.268133
@<TRIPOS>BOND
     1     1     2 1   
     2     1     7 1   
     3     1     8 1   
     4     1    13 1   
     5     2     3 2   
     6     2     4 1   
     7     3     9 1   
     8     3    10 1   
     9     4     5 1   
    10     4     6 2   
    11     5    11 1   
    12     5    12 1   
    13     5    14 1   
@<TRIPOS>SUBSTRUCTURE
     1 PYT         1 TEMP              0 ****  ****    0 ROOT
