@<TRIPOS>MOLECULE
molecule
   25    26     1     0     0
SMALL
bcc


@<TRIPOS>ATOM
      1 N1           0.0000     0.0000     0.0000 n          1 PYU      -0.033200
      2 C4          -3.0410     1.0510    -0.9210 ca         1 PYU       0.187100
      3 C5          -4.2220    -1.4660    -0.7130 ca         1 PYU      -0.235000
      4 C6          -4.4130     0.9360    -0.7930 ca         1 PYU      -0.235000
      5 C7           1.3690     0.0000     0.0000 cc         1 PYU      -0.133300
      6 C8          -0.4360     0.0020     1.2980 cc         1 PYU      -0.133300
      7 C10          1.7880     0.0000     1.2800 cd         1 PYU      -0.191500
      8 C11          0.6420     0.0020     2.1040 cd         1 PYU      -0.191500
      9 C1          -2.2430    -0.1060    -0.9520 ca         1 PYU      -0.203600
     10 C9          -5.0020    -0.3170    -0.6890 ca         1 PYU       0.172100
     11 C3          -2.8490    -1.3690    -0.8460 ca         1 PYU       0.187100
     12 C2          -0.7870     0.0050    -1.0950 c          1 PYU       0.607500
     13 O1          -0.2900     0.1010    -2.2000 o          1 PYU      -0.544100
     14 O4          -6.3500    -0.4200    -0.5590 oh         1 PYU      -0.519100
     15 O2          -2.0880    -2.4930    -0.8690 oh         1 PYU      -0.502600
     16 H5          -4.6900    -2.4390    -0.6310 ha         1 PYU       0.155500
     17 H6          -5.0300     1.8260    -0.7710 ha         1 PYU       0.155500
     18 H7           2.0050    -0.0010    -0.8770 h4         1 PYU       0.177500
     19 H8          -1.4710     0.0030     1.6210 h4         1 PYU       0.177500
     20 H10          2.8180    -0.0000     1.6170 ha         1 PYU       0.151000
     21 H11          0.6330     0.0020     3.1870 ha         1 PYU       0.151000
     22 HO4         -6.5790    -0.4090     0.3560 ho         1 PYU       0.430000
     23 HO2         -2.3640    -3.0450    -1.5810 ho         1 PYU       0.436500
     24 HO3         -2.8440     2.7400    -1.7520 ho         1 PYU       0.436500
     25 O3          -2.4670     2.2760    -1.0230 oh         1 PYU      -0.502600
@<TRIPOS>BOND
     1    12     1 1
     2     1     5 1
     3     1     6 1
     4     9     2 ar
     5     4     2 ar
     6     2    25 1
     7     3    11 ar
     8     3    10 ar
     9     3    16 1
    10    10     4 ar
    11     4    17 1
    12     5     7 2
    13     5    18 1
    14     6     8 2
    15     6    19 1
    16     7     8 1
    17     7    20 1
    18     8    21 1
    19    11     9 ar
    20     9    12 1
    21    14    10 1
    22    15    11 1
    23    13    12 2
    24    14    22 1
    25    15    23 1
    26    25    24 1
@<TRIPOS>SUBSTRUCTURE
     1 PYU         1 TEMP              0 ****  ****    0 ROOT
