@<TRIPOS>MOLECULE
PYU
   25    23     1     0     0
SMALL
bcc


@<TRIPOS>ATOM
      1 N1         -0.0160   -0.4630   -0.5860 ny        1 PYU      0.095000
      2 C4         -3.2540    1.5060   -0.9490 c2        1 PYU     -0.173000
      3 C5         -4.4330   -0.8750   -0.3060 c2        1 PYU     -0.389000
      4 C6         -4.5870    1.4040   -0.7320 c1        1 PYU      0.142000
      5 C7          2.2370   -0.1320    0.8810 c1        1 PYU      0.040000
      6 C8         -0.0460   -0.3710    0.8040 c1        1 PYU     -0.667000
      7 C10         2.8030    0.0430    2.0470 c2        1 PYU     -0.481000
      8 C11        -0.0550   -0.3100    2.0380 c1        1 PYU     -0.001000
      9 C1         -2.4060    0.3090   -0.9640 c2        1 PYU     -0.183000
     10 C9         -5.4550   -0.9970   -1.1880 c2        1 PYU      0.136000
     11 C3         -3.0280   -0.8790   -0.7030 c2        1 PYU      0.173000
     12 C2         -0.9800    0.4670   -1.2550 c2        1 PYU      0.332000
     13 O1         -0.4940    1.3140   -2.0070 o         1 PYU     -0.259000
     14 O4         -6.7650   -0.9730   -0.8520 oh        1 PYU     -0.224000
     15 O2         -2.3570   -2.0630   -0.8360 oh        1 PYU     -0.262000
     16 H5         -4.6060   -0.7390    0.7770 ha        1 PYU      0.187000
     17 H6         -5.3460   -1.1490   -2.2790 h4        1 PYU      0.183000
     18 H7          0.9600   -0.2310   -0.8830 hn        1 PYU      0.249000
     19 H8         -0.2430   -1.4250   -0.8660 hn        1 PYU      0.249000
     20 H10         2.2600    0.0720    3.0060 ha        1 PYU      0.177000
     21 H11         3.8910    0.1780    2.1470 ha        1 PYU      0.177000
     22 HO4        -6.8680   -0.7260    0.0830 ho        1 PYU      0.243000
     23 HO2        -2.8680   -2.7570   -0.3880 ho        1 PYU      0.255000
     24 HO3        -2.1050    2.7490   -1.8370 ho        1 PYU      0.231000
     25 O3         -2.6840    2.7610   -1.0570 oh        1 PYU     -0.231000
@<TRIPOS>BOND
     1    1    6 1   
     2    1   12 1   
     3    1   18 1   
     4    1   19 1   
     5    2    4 1   
     6    2    9 1   
     7    2   25 1   
     8    3   10 1   
     9    3   11 1   
    10    3   16 1   
    11    5    7 1   
    12    6    8 1   
    13    7   20 1   
    14    7   21 1   
    15    9   11 1   
    16    9   12 1   
    17   10   14 1   
    18   10   17 1   
    19   11   15 1   
    20   12   13 1   
    21   14   22 1   
    22   15   23 1   
    23   24   25 1   
@<TRIPOS>SUBSTRUCTURE
     1 PYU         1 TEMP              0 ****  ****    0 ROOT
