@<TRIPOS>MOLECULE
PYV
   35    37     1     0     0
SMALL
bcc


@<TRIPOS>ATOM
      1 S            0.0000     0.0000     0.0000 sy         1 PYV       1.048200
      2 C1          -1.3650    -3.9710    -1.7680 ca         1 PYV       0.097100
      3 N1           1.6560     0.0000     0.0000 n7         1 PYV      -0.580100
      4 O1          -0.4000     0.0000     1.3630 o          1 PYV      -0.584300
      5 C2          -0.6490    -3.9740    -0.5590 ca         1 PYV      -0.051000
      6 N2           4.1290     1.6410    -1.0700 nb         1 PYV      -0.553000
      7 O2          -0.4010     0.9980    -0.9280 o          1 PYV      -0.584300
      8 C3          -0.2210    -2.7410    -0.0030 ca         1 PYV       0.050000
      9 C4          -0.5210    -1.5430    -0.6710 ca         1 PYV      -0.145500
     10 C5          -1.2180    -1.5790    -1.8410 ca         1 PYV       0.030000
     11 C6          -1.6340    -2.7890    -2.3910 ca         1 PYV      -0.122000
     12 C7           0.4950    -2.7440     1.2060 ca         1 PYV      -0.122000
     13 C8           0.7670    -3.9240     1.8250 ca         1 PYV      -0.071000
     14 C9           0.3460    -5.1360     1.2790 ca         1 PYV      -0.099000
     15 C10         -0.3490    -5.1720     0.1100 ca         1 PYV      -0.081000
     16 C11          2.3890    -0.0650    -1.2670 c3         1 PYV       0.184500
     17 C12          3.8180     0.3600    -1.0430 ca         1 PYV       0.344600
     18 C13          5.3650     2.0590    -0.8810 ca         1 PYV       0.402200
     19 C14          6.3870     1.1590    -0.6450 ca         1 PYV      -0.214300
     20 C15          6.0980    -0.1970    -0.6090 ca         1 PYV      -0.071000
     21 C16          4.7870    -0.5980    -0.8130 ca         1 PYV      -0.204300
     22 HN1          2.1560     0.0860     0.8630 hn         1 PYV       0.352800
     23 H5          -1.4440    -0.6540    -2.3560 ha         1 PYV       0.132000
     24 H6          -2.1860    -2.7900    -3.3230 ha         1 PYV       0.123000
     25 H7           0.8290    -1.8100     1.6430 ha         1 PYV       0.135000
     26 H8           1.3200    -3.9230     2.7570 ha         1 PYV       0.104000
     27 H9           0.5760    -6.0610     1.7920 ha         1 PYV       0.105000
     28 H10         -0.6700    -6.1210    -0.3030 ha         1 PYV       0.119000
     29 H11          1.9240     0.5980    -1.9870 h1         1 PYV       0.024200
     30 H11A         2.3690    -1.0800    -1.6450 h1         1 PYV       0.024200
     31 H13          5.5830     3.1200    -0.9110 h4         1 PYV      -0.017900
     32 H14          7.4010     1.5080    -0.4900 ha         1 PYV       0.114000
     33 H15          6.8790    -0.9250    -0.4260 ha         1 PYV       0.109000
     34 H16          4.5250    -1.6490    -0.7910 ha         1 PYV       0.116000
     35 Br          -1.9480    -5.6010    -2.5310 br         1 PYV      -0.116100
@<TRIPOS>BOND
     1     1     3 1   
     2     1     4 2   
     3     1     7 2   
     4     1     9 1   
     5     2     5 ar  
     6     2    11 ar  
     7     2    35 1   
     8     3    16 1   
     9     3    22 1   
    10     5     8 ar  
    11     5    15 ar  
    12     6    17 ar  
    13     6    18 ar  
    14     8     9 ar  
    15     8    12 ar  
    16     9    10 ar  
    17    10    11 ar  
    18    10    23 1   
    19    11    24 1   
    20    12    13 ar  
    21    12    25 1   
    22    13    14 ar  
    23    13    26 1   
    24    14    15 ar  
    25    14    27 1   
    26    15    28 1   
    27    16    17 1   
    28    16    29 1   
    29    16    30 1   
    30    17    21 ar  
    31    18    19 ar  
    32    18    31 1   
    33    19    20 ar  
    34    19    32 1   
    35    20    21 ar  
    36    20    33 1   
    37    21    34 1   
@<TRIPOS>SUBSTRUCTURE
     1 PYV         1 TEMP              0 ****  ****    0 ROOT
