@<TRIPOS>MOLECULE
molecule
   71    73     1     0     0
SMALL
bcc


@<TRIPOS>ATOM
      1 CAO          0.0000     0.0000     0.0000 ca         1 PYW      -0.103000
      2 CAK          1.3860     0.0000     0.0000 ca         1 PYW      -0.258300
      3 CAM          2.0590     0.0000     1.2070 ca         1 PYW       0.407200
      4 NAT          1.3980    -0.0020     2.3480 nb         1 PYW      -0.700000
      5 CAQ          0.0800    -0.0020     2.3870 ca         1 PYW       0.456200
      6 CBF         -0.6600    -0.0010     1.2200 ca         1 PYW      -0.167600
      7 CAS         -2.1670     0.0000     1.2730 c3         1 PYW      -0.037100
      8 CBL         -2.6920    -1.3450     0.7860 c3         1 PYW       0.138700
      9 NAV         -4.1390    -1.3970     0.6040 ns         1 PYW      -0.589900
     10 C           -4.9830    -0.4480     1.0820 c          1 PYW       0.679100
     11 O           -4.7820     0.2340     2.0600 o          1 PYW      -0.582100
     12 CBK         -2.1410    -2.5010     1.6010 c3         1 PYW       0.144100
     13 OAJ         -0.8180    -2.1610     2.0500 oh         1 PYW      -0.587800
     14 CBJ         -2.9700    -2.9340     2.7920 c3         1 PYW      -0.130700
     15 CAD         -3.2150    -1.8000     3.7820 c3         1 PYW      -0.089100
     16 CBD         -4.2710    -3.5740     2.3950 c          1 PYW       0.668100
     17 OAH         -4.4970    -3.8210     1.2340 o          1 PYW      -0.543000
     18 OAX         -5.1470    -3.9270     3.3380 os         1 PYW      -0.335200
     19 CBE         -6.4530    -4.1250     3.0720 ce         1 PYW       0.007900
     20 CAZ         -7.1650    -5.0040     3.7830 c2         1 PYW      -0.048400
     21 CAB         -8.5780    -5.3340     3.3750 c3         1 PYW      -0.045900
     22 CAR         -6.5550    -5.6660     4.9910 c3         1 PYW      -0.046200
     23 CAA         -6.9440    -4.8880     6.2500 c3         1 PYW      -0.084100
     24 CBA         -7.1390    -3.3320     2.0300 c          1 PYW       0.644300
     25 OAE         -8.3180    -3.5250     1.8120 o          1 PYW      -0.548000
     26 OG1         -6.4480    -2.4110     1.3450 os         1 PYW      -0.429900
     27 CB          -7.1390    -1.4940     0.4630 c3         1 PYW       0.145100
     28 CG2         -7.3350    -2.1330    -0.9130 c3         1 PYW      -0.126100
     29 CA          -6.2790    -0.2320     0.3190 c3         1 PYW       0.035700
     30 N           -5.9750     0.0020    -1.0920 ns         1 PYW      -0.578900
     31 CBB         -5.6700     1.2430    -1.5190 c          1 PYW       0.572600
     32 OAF         -5.5600     2.1510    -0.7180 o          1 PYW      -0.568100
     33 CBH         -5.4720     1.5010    -2.9620 ca         1 PYW       0.345800
     34 NAU         -5.7010     0.5330    -3.8420 nb         1 PYW      -0.665000
     35 CAN         -5.5370     0.7200    -5.1320 ca         1 PYW       0.387200
     36 CAL         -5.1130     1.9440    -5.6290 ca         1 PYW      -0.202300
     37 CAP         -4.8610     2.9840    -4.7530 ca         1 PYW      -0.175000
     38 CBG         -5.0480     2.7630    -3.3900 ca         1 PYW       0.065800
     39 OAI         -4.8180     3.7540    -2.4930 oh         1 PYW      -0.463100
     40 HAO         -0.5550     0.0000    -0.9310 ha         1 PYW       0.132000
     41 HAK          1.9350     0.0010    -0.9340 ha         1 PYW       0.131000
     42 HAM          3.1420    -0.0000     1.2160 h4         1 PYW       0.016100
     43 HAQ         -0.4280    -0.0030     3.3440 h4         1 PYW       0.024100
     44 HAS1        -2.4920     0.1680     2.2930 hc         1 PYW       0.077200
     45 HAS2        -2.5500     0.7890     0.6370 hc         1 PYW       0.077200
     46 HBL         -2.2770    -1.4710    -0.2070 h1         1 PYW       0.043700
     47 HAV         -4.5280    -2.1700     0.1010 hn         1 PYW       0.348500
     48 HBK         -2.0540    -3.3530     0.9390 h1         1 PYW       0.041700
     49 HA          -6.8070     0.6210     0.7270 h1         1 PYW       0.118700
     50 HAJ         -0.3130    -2.9490     2.1670 ho         1 PYW       0.399000
     51 HBJ         -2.3950    -3.6880     3.3150 hc         1 PYW       0.069700
     52 HAD1        -4.1450    -1.3000     3.5370 hc         1 PYW       0.057033
     53 HAD2        -2.3990    -1.0900     3.7280 hc         1 PYW       0.057033
     54 HAD3        -3.2770    -2.2040     4.7860 hc         1 PYW       0.057033
     55 HAB1        -8.9630    -6.1220     4.0110 hc         1 PYW       0.059367
     56 HAB2        -9.1990    -4.4520     3.4780 hc         1 PYW       0.059367
     57 HAB3        -8.5890    -5.6640     2.3440 hc         1 PYW       0.059367
     58 HAR1        -6.9210    -6.6830     5.0680 hc         1 PYW       0.057200
     59 HAR2        -5.4770    -5.6770     4.8910 hc         1 PYW       0.057200
     60 HAA1        -7.8630    -5.2930     6.6560 hc         1 PYW       0.040367
     61 HAA2        -6.1550    -4.9750     6.9870 hc         1 PYW       0.040367
     62 HAA3        -7.0900    -3.8440     5.9990 hc         1 PYW       0.040367
     63 HB          -8.1010    -1.2340     0.8860 h1         1 PYW       0.079700
     64 HG21        -7.9920    -2.9890    -0.8230 hc         1 PYW       0.057700
     65 HG22        -6.3760    -2.4530    -1.3030 hc         1 PYW       0.057700
     66 HG23        -7.7760    -1.4090    -1.5880 hc         1 PYW       0.057700
     67 H           -5.9680    -0.7650    -1.7360 hn         1 PYW       0.343500
     68 HAN         -5.7340    -0.0940    -5.8180 h4         1 PYW       0.029100
     69 HAL         -4.9790     2.0840    -6.6950 ha         1 PYW       0.144000
     70 HAP         -4.5310     3.9490    -5.1180 ha         1 PYW       0.149000
     71 HAI         -5.2100     4.5540    -2.8010 ho         1 PYW       0.424000
@<TRIPOS>BOND
     1     1     2 ar
     2     1     6 ar
     3     2     3 ar
     4     3     4 ar
     5     4     5 ar
     6     5     6 ar
     7     6     7 1
     8     7     8 1
     9     8     9 1
    10     8    12 1
    11     9    10 1
    12    10    11 2
    13    10    29 1
    14    12    13 1
    15    12    14 1
    16    14    15 1
    17    14    16 1
    18    16    17 2
    19    16    18 1
    20    18    19 1
    21    19    20 2
    22    19    24 1
    23    20    21 1
    24    20    22 1
    25    22    23 1
    26    24    25 2
    27    24    26 1
    28    26    27 1
    29    27    28 1
    30    27    29 1
    31    29    30 1
    32    30    31 1
    33    31    32 2
    34    31    33 1
    35    33    34 ar
    36    33    38 ar
    37    34    35 ar
    38    35    36 ar
    39    36    37 ar
    40    37    38 ar
    41    38    39 1
    42     1    40 1
    43     2    41 1
    44     3    42 1
    45     5    43 1
    46     7    44 1
    47     7    45 1
    48     8    46 1
    49     9    47 1
    50    12    48 1
    51    29    49 1
    52    13    50 1
    53    14    51 1
    54    15    52 1
    55    15    53 1
    56    15    54 1
    57    21    55 1
    58    21    56 1
    59    21    57 1
    60    22    58 1
    61    22    59 1
    62    23    60 1
    63    23    61 1
    64    23    62 1
    65    27    63 1
    66    28    64 1
    67    28    65 1
    68    28    66 1
    69    30    67 1
    70    35    68 1
    71    36    69 1
    72    37    70 1
    73    39    71 1
@<TRIPOS>SUBSTRUCTURE
     1 PYW         1 TEMP              0 ****  ****    0 ROOT
