@<TRIPOS>MOLECULE
PYW
   71    73     1     0     0
SMALL
bcc


@<TRIPOS>ATOM
      1 CAO          0.0000     0.0000     0.0000 ca         1 PYW      -0.081000
      2 CAK          1.3860     0.0000     0.0000 ca         1 PYW      -0.224300
      3 CAM          2.0590     0.0000     1.2070 ca         1 PYW       0.390200
      4 NAT          1.3980    -0.0020     2.3480 nb         1 PYW      -0.590000
      5 CAQ          0.0800    -0.0020     2.3870 ca         1 PYW       0.430200
      6 CBF         -0.6600    -0.0010     1.2200 ca         1 PYW      -0.165600
      7 CAS         -2.1670     0.0000     1.2730 c3         1 PYW       0.014900
      8 CBL         -2.6920    -1.3450     0.7860 c3         1 PYW       0.038700
      9 NAV         -4.1390    -1.3970     0.6040 ns         1 PYW      -0.235900
     10 C           -4.9830    -0.4480     1.0820 c          1 PYW       0.597100
     11 O           -4.7820     0.2340     2.0600 o          1 PYW      -0.610100
     12 CBK         -2.1410    -2.5010     1.6010 c3         1 PYW       0.187100
     13 OAJ         -0.8180    -2.1610     2.0500 oh         1 PYW      -0.570800
     14 CBJ         -2.9700    -2.9340     2.7920 c3         1 PYW      -0.113700
     15 CAD         -3.2150    -1.8000     3.7820 c3         1 PYW      -0.024100
     16 CBD         -4.2710    -3.5740     2.3950 c          1 PYW       0.718100
     17 OAH         -4.4970    -3.8210     1.2340 o          1 PYW      -0.583000
     18 OAX         -5.1470    -3.9270     3.3380 os         1 PYW      -0.301200
     19 CBE         -6.4530    -4.1250     3.0720 ce         1 PYW      -0.008100
     20 CAZ         -7.1650    -5.0040     3.7830 c2         1 PYW      -0.061400
     21 CAB         -8.5780    -5.3340     3.3750 c3         1 PYW       0.048100
     22 CAR         -6.5550    -5.6660     4.9910 c3         1 PYW       0.017800
     23 CAA         -6.9440    -4.8880     6.2500 c3         1 PYW       0.013900
     24 CBA         -7.1390    -3.3320     2.0300 c          1 PYW       0.715300
     25 OAE         -8.3180    -3.5250     1.8120 o          1 PYW      -0.584000
     26 OG1         -6.4480    -2.4110     1.3450 os         1 PYW      -0.412900
     27 CB          -7.1390    -1.4940     0.4630 c3         1 PYW       0.191100
     28 CG2         -7.3350    -2.1330    -0.9130 c3         1 PYW      -0.054100
     29 CA          -6.2790    -0.2320     0.3190 c3         1 PYW      -0.074300
     30 N           -5.9750     0.0020    -1.0920 ns         1 PYW      -0.213900
     31 CBB         -5.6700     1.2430    -1.5190 c          1 PYW       0.489600
     32 OAF         -5.5600     2.1510    -0.7180 o          1 PYW      -0.611100
     33 CBH         -5.4720     1.5010    -2.9620 ca         1 PYW       0.271800
     34 NAU         -5.7010     0.5330    -3.8420 nb         1 PYW      -0.541000
     35 CAN         -5.5370     0.7200    -5.1320 ca         1 PYW       0.352200
     36 CAL         -5.1130     1.9440    -5.6290 ca         1 PYW      -0.153300
     37 CAP         -4.8610     2.9840    -4.7530 ca         1 PYW      -0.181000
     38 CBG         -5.0480     2.7630    -3.3900 ca         1 PYW       0.105800
     39 OAI         -4.8180     3.7540    -2.4930 oh         1 PYW      -0.425100
     40 HAO         -0.5550     0.0000    -0.9310 ha         1 PYW       0.107000
     41 HAK          1.9350     0.0010    -0.9340 ha         1 PYW       0.108000
     42 HAM          3.1420    -0.0000     1.2160 h4         1 PYW      -0.024900
     43 HAQ         -0.4280    -0.0030     3.3440 h4         1 PYW      -0.013900
     44 HAS1        -2.5500     0.7890     0.6370 hc         1 PYW       0.051200
     45 HAS2        -2.4920     0.1680     2.2930 hc         1 PYW       0.051200
     46 HBL         -2.2770    -1.4710    -0.2070 h1         1 PYW       0.017700
     47 HAV         -4.5280    -2.1690     0.0990 hn         1 PYW       0.223500
     48 HBK         -2.0540    -3.3530     0.9390 h1         1 PYW       0.009700
     49 HA          -6.8070     0.6210     0.7270 h1         1 PYW       0.088700
     50 HAJ         -0.2940    -2.9430     2.1060 ho         1 PYW       0.385000
     51 HBJ         -2.3950    -3.6880     3.3150 hc         1 PYW       0.041700
     52 HAD1        -4.0960    -1.2430     3.4840 hc         1 PYW       0.030367
     53 HAD2        -3.3670    -2.2120     4.7730 hc         1 PYW       0.030367
     54 HAD3        -2.3570    -1.1390     3.7940 hc         1 PYW       0.030367
     55 HAB1        -8.5960    -5.6190     2.3300 hc         1 PYW       0.026367
     56 HAB2        -8.9460    -6.1540     3.9790 hc         1 PYW       0.026367
     57 HAB3        -9.2090    -4.4650     3.5230 hc         1 PYW       0.026367
     58 HAR1        -6.9210    -6.6830     5.0680 hc         1 PYW       0.023700
     59 HAR2        -5.4770    -5.6770     4.8910 hc         1 PYW       0.023700
     60 HAA1        -6.1860    -5.0300     7.0110 hc         1 PYW       0.005700
     61 HAA2        -7.8970    -5.2490     6.6180 hc         1 PYW       0.005700
     62 HAA3        -7.0250    -3.8340     6.0130 hc         1 PYW       0.005700
     63 HB          -8.1010    -1.2350     0.8860 h1         1 PYW       0.042700
     64 HG21        -7.6410    -1.3740    -1.6230 hc         1 PYW       0.029033
     65 HG22        -6.4040    -2.5800    -1.2400 hc         1 PYW       0.029033
     66 HG23        -8.1000    -2.8980    -0.8500 hc         1 PYW       0.029033
     67 H           -5.9590    -0.7660    -1.7340 hn         1 PYW       0.214500
     68 HAN         -5.7340    -0.0940    -5.8180 h4         1 PYW      -0.014900
     69 HAL         -4.9790     2.0840    -6.6950 ha         1 PYW       0.113000
     70 HAP         -4.5310     3.9490    -5.1180 ha         1 PYW       0.121000
     71 HAI         -4.9940     4.5890    -2.8940 ho         1 PYW       0.398000
@<TRIPOS>BOND
     1     1     2 ar  
     2     1     6 ar  
     3     1    40 1   
     4     2     3 ar  
     5     2    41 1   
     6     3     4 ar  
     7     3    42 1   
     8     4     5 ar  
     9     5     6 ar  
    10     5    43 1   
    11     6     7 1   
    12     7     8 1   
    13     7    44 1   
    14     7    45 1   
    15     8     9 1   
    16     8    12 1   
    17     8    46 1   
    18     9    10 1   
    19     9    47 1   
    20    10    11 2   
    21    10    29 1   
    22    12    13 1   
    23    12    14 1   
    24    12    48 1   
    25    13    50 1   
    26    14    15 1   
    27    14    16 1   
    28    14    51 1   
    29    15    52 1   
    30    15    53 1   
    31    15    54 1   
    32    16    17 2   
    33    16    18 1   
    34    18    19 1   
    35    19    20 2   
    36    19    24 1   
    37    20    21 1   
    38    20    22 1   
    39    21    55 1   
    40    21    56 1   
    41    21    57 1   
    42    22    23 1   
    43    22    58 1   
    44    22    59 1   
    45    23    60 1   
    46    23    61 1   
    47    23    62 1   
    48    24    25 2   
    49    24    26 1   
    50    26    27 1   
    51    27    28 1   
    52    27    29 1   
    53    27    63 1   
    54    28    64 1   
    55    28    65 1   
    56    28    66 1   
    57    29    30 1   
    58    29    49 1   
    59    30    31 1   
    60    30    67 1   
    61    31    32 2   
    62    31    33 1   
    63    33    34 ar  
    64    33    38 ar  
    65    34    35 ar  
    66    35    36 ar  
    67    35    68 1   
    68    36    37 ar  
    69    36    69 1   
    70    37    38 ar  
    71    37    70 1   
    72    38    39 1   
    73    39    71 1   
@<TRIPOS>SUBSTRUCTURE
     1 PYW         1 TEMP              0 ****  ****    0 ROOT
