@<TRIPOS>MOLECULE
PYZ
    9     9     1     0     0
SMALL
bcc


@<TRIPOS>ATOM
      1 N1          0.0270   -0.0030    0.0240 na        1 PYZ     -0.017600
      2 N2          1.3610   -0.0010   -0.0270 nc        1 PYZ     -0.513800
      3 C3          1.8010   -0.0020    1.2560 cd        1 PYZ      0.332200
      4 C4          0.6750   -0.0050    2.1680 cd        1 PYZ     -0.174400
      5 I4          0.7320   -0.0080    4.1470 i         1 PYZ     -0.090900
      6 C5         -0.4550   -0.0050    1.3310 cc        1 PYZ     -0.099300
      7 HN1        -0.5070   -0.0020   -0.8130 hn        1 PYZ      0.324700
      8 H3          2.8620   -0.0010    1.5090 h4        1 PYZ      0.053100
      9 H5         -1.5200   -0.0070    1.5630 h4        1 PYZ      0.185000
@<TRIPOS>BOND
     1    1    2 1   
     2    1    6 1   
     3    1    7 1   
     4    2    3 2   
     5    3    4 1   
     6    3    8 1   
     7    4    5 1   
     8    4    6 2   
     9    6    9 1   
@<TRIPOS>SUBSTRUCTURE
     1 PYZ         1 TEMP              0 ****  ****    0 ROOT
