@<TRIPOS>MOLECULE
molecule
    9     9     1     0     0
SMALL
bcc


@<TRIPOS>ATOM
      1 N1           0.0000     0.0000     0.0000 na         1 PYZ      -0.038600
      2 N2           1.3990     0.0000     0.0000 nc         1 PYZ      -0.504800
      3 C3           1.8080     0.0000     1.2440 cd         1 PYZ       0.363200
      4 C4           0.6820    -0.0070     2.0740 cd         1 PYZ      -0.169400
      5 I4           0.6960    -0.0140     4.1680 i          1 PYZ      -0.143900
      6 C5          -0.4160    -0.0050     1.2850 cc         1 PYZ      -0.077300
      7 HN1         -0.5890     0.0010    -0.8090 hn         1 PYZ       0.333700
      8 H3           2.8400     0.0000     1.5730 h4         1 PYZ       0.058100
      9 H5          -1.4450    -0.0080     1.6220 h4         1 PYZ       0.179000
@<TRIPOS>BOND
     1     1     2 1
     2     1     6 1
     3     1     7 1
     4     2     3 2
     5     3     4 1
     6     3     8 1
     7     4     5 1
     8     4     6 2
     9     6     9 1
@<TRIPOS>SUBSTRUCTURE
     1 PYZ         1 TEMP              0 ****  ****    0 ROOT
