@<TRIPOS>MOLECULE
molecule
   84    88     1     0     0
SMALL
bcc


@<TRIPOS>ATOM
      1 C1           0.0000     0.0000     0.0000 c3         1 PZ1       0.106700
      2 O1           1.4290     0.0000     0.0000 os         1 PZ1      -0.304900
      3 C2           1.8220     0.0000     1.3010 ca         1 PZ1       0.119100
      4 C3           3.1710    -0.0060     1.6200 ca         1 PZ1      -0.118300
      5 C4           4.2050    -0.0060     0.5220 c3         1 PZ1       0.182700
      6 O2           5.5130     0.0030     1.0990 os         1 PZ1      -0.410600
      7 C5           0.8730    -0.0010     2.3130 ca         1 PZ1      -0.222000
      8 C6           1.2740    -0.0010     3.6350 ca         1 PZ1      -0.091000
      9 C7           2.6210     0.0000     3.9490 ca         1 PZ1      -0.165000
     10 C8           3.5680     0.0010     2.9430 ca         1 PZ1      -0.071000
     11 C20         14.3110    -1.6650    -4.6410 c3         1 PZ1       0.127700
     12 C21         14.8500    -1.7060    -6.0720 c3         1 PZ1       0.132800
     13 N2          15.6100    -0.4740    -6.3300 n7         1 PZ1      -0.798200
     14 C22         14.6260     0.6070    -6.4500 c3         1 PZ1       0.076800
     15 C23         13.7320     0.6390    -5.2440 c          1 PZ1       0.710500
     16 N3          13.5940    -0.4090    -4.4220 n          1 PZ1      -0.388000
     17 C24         13.3560    -2.8410    -4.4240 c3         1 PZ1       0.104400
     18 O6          14.0370    -4.0650    -4.7030 os         1 PZ1      -0.368900
     19 C25         11.3650    -0.1690    -3.5200 ca         1 PZ1      -0.087500
     20 C26         12.7340    -0.3010    -3.3220 ca         1 PZ1       0.013600
     21 C27         13.2480    -0.3260    -2.0330 ca         1 PZ1      -0.087500
     22 C28         12.3990    -0.2190    -0.9490 ca         1 PZ1      -0.185500
     23 C29         11.0330    -0.0860    -1.1470 ca         1 PZ1       0.122100
     24 C30         10.5180    -0.0660    -2.4350 ca         1 PZ1      -0.185500
     25 O7          10.1980     0.0200    -0.0800 os         1 PZ1      -0.292900
     26 C31          8.8660     0.0120    -0.5950 c3         1 PZ1       0.117400
     27 C32          7.8700     0.0110     0.5660 c3         1 PZ1      -0.090400
     28 C33          6.4430     0.0040     0.0140 c3         1 PZ1       0.130400
     29 C34          9.3370    -2.9270    -6.8970 c3         1 PZ1       0.141400
     30 C9          13.4570    -6.7370    -4.5880 ce         1 PZ1      -0.145000
     31 C10         12.5270    -7.7150    -4.5210 cf         1 PZ1      -0.068000
     32 C11         11.1730    -7.4010    -4.2980 cf         1 PZ1      -0.185200
     33 C12         10.7850    -6.0540    -3.7540 c3         1 PZ1       0.364900
     34 C13         11.8180    -5.0170    -4.0530 c2         1 PZ1      -0.263200
     35 C14         13.0570    -5.3370    -4.4330 ce         1 PZ1       0.145100
     36 C15         10.2070    -8.3150    -4.5560 ce         1 PZ1      -0.038000
     37 C16          8.8470    -7.9560    -4.4290 ce         1 PZ1      -0.275000
     38 C17          8.4890    -6.6610    -4.3020 c2         1 PZ1       0.124000
     39 N1           9.4780    -5.6890    -4.3070 nh         1 PZ1      -0.707400
     40 C18          9.2250    -4.3510    -4.8460 c3         1 PZ1       0.233800
     41 C19          9.4800    -4.3510    -6.3550 c3         1 PZ1      -0.117400
     42 O3           9.4610    -2.9450    -8.3200 oh         1 PZ1      -0.605800
     43 H1C1        -0.3610    -0.8850     0.5100 h1         1 PZ1       0.044367
     44 H1C2        -0.3610     0.8840     0.5110 h1         1 PZ1       0.044367
     45 H1C3        -0.3610     0.0010    -1.0210 h1         1 PZ1       0.044367
     46 H4C1         4.0760     0.8760    -0.0940 h1         1 PZ1       0.041700
     47 H4C2         4.0850    -0.8930    -0.0880 h1         1 PZ1       0.041700
     48 H5          -0.1820    -0.0020     2.0670 ha         1 PZ1       0.141000
     49 H6           0.5340    -0.0010     4.4260 ha         1 PZ1       0.130000
     50 H7           2.9340     0.0030     4.9860 ha         1 PZ1       0.132000
     51 H8           4.6230    -0.0010     3.1920 ha         1 PZ1       0.155000
     52 H20         15.1370    -1.7330    -3.9440 h1         1 PZ1       0.076700
     53 H211        14.0230    -1.7730    -6.7690 h1         1 PZ1       0.055200
     54 H212        15.5010    -2.5630    -6.1890 h1         1 PZ1       0.055200
     55 H2          16.1120    -0.5660    -7.1910 hn         1 PZ1       0.362800
     56 H221        14.0240     0.4440    -7.3360 h1         1 PZ1       0.067200
     57 H222        15.1460     1.5540    -6.5340 h1         1 PZ1       0.067200
     58 H241        12.5050    -2.7420    -5.0870 h1         1 PZ1       0.039700
     59 H242        13.0140    -2.8440    -3.3960 h1         1 PZ1       0.039700
     60 H25         10.9630    -0.1530    -4.5260 ha         1 PZ1       0.141000
     61 H27         14.3150    -0.4290    -1.8770 ha         1 PZ1       0.141000
     62 H28         12.8010    -0.2360     0.0570 ha         1 PZ1       0.145500
     63 H30          9.4510     0.0380    -2.5900 ha         1 PZ1       0.145500
     64 H311         8.7090     0.8930    -1.2050 h1         1 PZ1       0.041200
     65 H312         8.7170    -0.8760    -1.1990 h1         1 PZ1       0.041200
     66 H321         8.0190     0.8980     1.1700 hc         1 PZ1       0.068200
     67 H322         8.0260    -0.8710     1.1760 hc         1 PZ1       0.068200
     68 H331         6.2870     0.8860    -0.5950 h1         1 PZ1       0.026200
     69 H332         6.2940    -0.8830    -0.5900 h1         1 PZ1       0.026200
     70 H341        10.1140    -2.3010    -6.4750 h1         1 PZ1       0.021700
     71 H342         8.3660    -2.5320    -6.6230 h1         1 PZ1       0.021700
     72 H9          14.5040    -6.9910    -4.7050 ha         1 PZ1       0.144000
     73 H10         12.8250    -8.7490    -4.6440 ha         1 PZ1       0.139000
     74 H112        10.6880    -6.1360    -2.6780 h1         1 PZ1       0.053700
     75 H13         11.5540    -3.9710    -3.9540 ha         1 PZ1       0.144000
     76 H15         10.4780    -9.3320    -4.8130 ha         1 PZ1       0.131000
     77 H16          8.0860    -8.7270    -4.4250 ha         1 PZ1       0.137000
     78 H17          7.4480    -6.3750    -4.3890 h4         1 PZ1       0.143000
     79 H181         8.1960    -4.0720    -4.6540 h1         1 PZ1       0.049200
     80 H182         9.8870    -3.6390    -4.3690 h1         1 PZ1       0.049200
     81 H191         8.7590    -4.9970    -6.8420 hc         1 PZ1       0.066700
     82 H192        10.4810    -4.7140    -6.5520 hc         1 PZ1       0.066700
     83 H3           8.9030    -2.2830    -8.6930 ho         1 PZ1       0.403000
     84 O5          13.1160     1.6560    -5.0020 o          1 PZ1      -0.635500
@<TRIPOS>BOND
     1     1     2 1
     2     1    43 1
     3     1    44 1
     4     1    45 1
     5     2     3 1
     6     3     4 ar
     7     3     7 ar
     8     4     5 1
     9     4    10 ar
    10     5     6 1
    11     5    46 1
    12     5    47 1
    13     6    28 1
    14     7     8 ar
    15     7    48 1
    16     8     9 ar
    17     8    49 1
    18     9    10 ar
    19     9    50 1
    20    10    51 1
    21    11    12 1
    22    11    16 1
    23    11    17 1
    24    11    52 1
    25    12    13 1
    26    12    53 1
    27    12    54 1
    28    13    14 1
    29    13    55 1
    30    14    15 1
    31    14    56 1
    32    14    57 1
    33    15    16 1
    34    15    84 2
    35    16    20 1
    36    17    18 1
    37    17    58 1
    38    17    59 1
    39    18    35 1
    40    19    20 ar
    41    19    24 ar
    42    19    60 1
    43    20    21 ar
    44    21    22 ar
    45    21    61 1
    46    22    23 ar
    47    22    62 1
    48    23    24 ar
    49    23    25 1
    50    24    63 1
    51    25    26 1
    52    26    27 1
    53    26    64 1
    54    26    65 1
    55    27    28 1
    56    27    66 1
    57    27    67 1
    58    28    68 1
    59    28    69 1
    60    29    41 1
    61    29    42 1
    62    29    70 1
    63    29    71 1
    64    30    31 2
    65    30    35 1
    66    30    72 1
    67    31    32 1
    68    31    73 1
    69    32    33 1
    70    32    36 2
    71    33    34 1
    72    33    39 1
    73    33    74 1
    74    34    35 2
    75    34    75 1
    76    36    37 1
    77    36    76 1
    78    37    38 2
    79    37    77 1
    80    38    39 1
    81    38    78 1
    82    39    40 1
    83    40    41 1
    84    40    79 1
    85    40    80 1
    86    41    81 1
    87    41    82 1
    88    42    83 1
@<TRIPOS>SUBSTRUCTURE
     1 PZ1         1 TEMP              0 ****  ****    0 ROOT
