@<TRIPOS>MOLECULE
PZ3
   94   100     1     0     0
SMALL
bcc


@<TRIPOS>ATOM
      1 CAA         0.0160   -1.3710   -0.5130 c3        1 PZ3      0.109700
      2 CAB         5.5780   -1.6910   12.2680 c3        1 PZ3      0.017600
      3 OAC        12.1810    3.0540    4.4150 o         1 PZ3     -0.498100
      4 OAD        -3.1430    0.0300    9.1930 o         1 PZ3     -0.410000
      5 OAE         6.2440   -0.3110    3.4810 o         1 PZ3     -0.497200
      6 OAF         4.3930    0.0190    5.0220 os        1 PZ3     -0.241100
      7 CAH        -7.0040    0.1570   15.1100 ca        1 PZ3     -0.073000
      8 CAI        -5.8170    0.8710   15.2930 ca        1 PZ3     -0.119500
      9 CAJ        -7.3630   -0.2920   13.8380 ca        1 PZ3     -0.119500
     10 CAK        -4.9870    1.1350   14.2060 ca        1 PZ3     -0.096000
     11 CAL        -6.5360   -0.0320   12.7460 ca        1 PZ3     -0.096000
     12 CAM         1.4120    1.9880    8.8590 ca        1 PZ3     -0.111500
     13 CAN         0.8070   -0.0710    7.7320 ca        1 PZ3     -0.111500
     14 CAO        13.0960    0.6550    7.0760 cc        1 PZ3     -0.192300
     15 CAP         0.3370    1.8430    9.7340 ca        1 PZ3     -0.104000
     16 CAQ        -0.2650   -0.2490    8.6020 ca        1 PZ3     -0.104000
     17 CAR         3.0900    0.2230    0.6350 ca        1 PZ3     -0.208000
     18 CAS         1.8460   -1.6440    1.6040 ca        1 PZ3     -0.208000
     19 CAT         9.2370   -0.5570    8.9560 ca        1 PZ3     -0.090000
     20 CAU         4.0330    0.0990    1.6440 ca        1 PZ3      0.000000
     21 CAV         2.8070   -1.7430    2.6030 ca        1 PZ3      0.000000
     22 CAW        12.0890    0.0030    7.8670 cc        1 PZ3     -0.267300
     23 CAX         7.9320   -0.8240    9.3370 ca        1 PZ3     -0.158000
     24 CAY         2.7930   -2.6590   10.1390 cc        1 PZ3      0.284200
     25 CAZ         3.1510   -2.3970   12.2800 cd        1 PZ3      0.384400
     26 CBA         8.4220    0.5870    6.9930 ca        1 PZ3     -0.069000
     27 CBB        -4.4840    1.0000   11.7600 c3        1 PZ3      0.185100
     28 CBC         2.8510    1.1580    6.9770 c3        1 PZ3     -0.069100
     29 CBE         6.0410    0.8300    6.4250 c3        1 PZ3      0.149100
     30 CBF         4.4740    0.2640    8.6610 c3        1 PZ3      0.186800
     31 NBG         2.1930   -2.7450   11.3900 nc        1 PZ3     -0.689000
     32 NBH        -3.4590   -0.0870   11.5500 n4        1 PZ3     -0.646800
     33 OBI         1.1060   -0.4590   -0.4180 os        1 PZ3     -0.315900
     34 OBK        11.0470    1.3550    6.3500 os        1 PZ3     -0.321800
     35 CBL        -2.6620    0.1580   10.3080 c         1 PZ3      0.612100
     36 CBM        -5.3450    0.6830   12.9290 ca        1 PZ3     -0.198300
     37 CBN         1.6680    1.0280    7.8710 ca        1 PZ3     -0.030300
     38 CBO        12.4310    1.4670    6.1680 cd        1 PZ3      0.144200
     39 CBP         1.9890   -0.6580    0.6160 ca        1 PZ3      0.184100
     40 CBQ        -0.4630    0.7030    9.6040 ca        1 PZ3      0.046100
     41 CBR         9.4970    0.1640    7.7810 ca        1 PZ3     -0.150500
     42 CBS         3.9110   -0.8840    2.6380 ca        1 PZ3     -0.223500
     43 CBT         7.0980    0.3180    7.3590 ca        1 PZ3     -0.108300
     44 CBU         4.1380   -2.2480   10.2690 cd        1 PZ3     -0.214900
     45 CBV        10.8580    0.4510    7.3990 cd        1 PZ3      0.336200
     46 CBW         6.8330   -0.3840    8.5570 ca        1 PZ3      0.145600
     47 CBX         3.8710    0.0400    7.2530 c3        1 PZ3      0.128500
     48 NBY         5.5320   -0.6180    9.0810 nh        1 PZ3     -0.647000
     49 NBZ         4.9310   -0.1380    6.2310 n3        1 PZ3     -0.447100
     50 NCA         4.3570   -2.0800   11.6420 na        1 PZ3     -0.177900
     51 SCB         5.0800   -1.1110    3.8340 sx        1 PZ3      0.635500
     52 HAA         0.3870   -2.4170   -0.6360 h1        1 PZ3      0.050700
     53 HAAA       -0.6430   -1.2890    0.3860 h1        1 PZ3      0.050700
     54 HAAB       -0.5250   -1.0310   -1.4330 h1        1 PZ3      0.050700
     55 HAB         6.3910   -2.4220   12.0070 h1        1 PZ3      0.062033
     56 HABA        5.4410   -1.6730   13.3810 h1        1 PZ3      0.062033
     57 HABB        5.8870   -0.6700   11.9120 h1        1 PZ3      0.062033
     58 HAG        14.0200    2.3700    5.0290 h4        1 PZ3      0.016200
     59 HAJ        -8.3030   -0.8480   13.6940 ha        1 PZ3      0.161000
     60 HAK        -4.0610    1.7120   14.3520 ha        1 PZ3      0.141500
     61 HAL        -6.8320   -0.3720   11.7420 ha        1 PZ3      0.141500
     62 HAM         2.0690    2.8680    8.9540 ha        1 PZ3      0.159000
     63 HAN         0.9860   -0.8060    6.9310 ha        1 PZ3      0.159000
     64 HAO        14.1710    0.5270    7.1800 ha        1 PZ3      0.168000
     65 HAP         0.1400    2.5840   10.5220 ha        1 PZ3      0.154000
     66 HAQ        -0.9380   -1.1130    8.5010 ha        1 PZ3      0.154000
     67 HAR         3.1850    0.9880   -0.1490 ha        1 PZ3      0.153000
     68 HAS         0.9920   -2.3350    1.5930 ha        1 PZ3      0.153000
     69 HAT        10.0740   -0.9050    9.5820 ha        1 PZ3      0.140000
     70 HAU         4.9060    0.7770    1.6690 ha        1 PZ3      0.147500
     71 HAV         2.6950   -2.5180    3.3790 ha        1 PZ3      0.147500
     72 HAW        12.2690   -0.7050    8.6710 ha        1 PZ3      0.165000
     73 HAX         7.7530   -1.3760   10.2740 ha        1 PZ3      0.132000
     74 HAY         2.2560   -2.9050    9.2250 h4        1 PZ3      0.034100
     75 HAZ         3.0360   -2.3650   13.3680 h5        1 PZ3      0.060100
     76 HBA         8.6290    1.1370    6.0570 ha        1 PZ3      0.167000
     77 HBB        -5.0910    1.0730   10.8100 hx        1 PZ3      0.116200
     78 HBBA       -3.9210    1.9650   11.9140 hx        1 PZ3      0.116200
     79 HBC         3.3420    2.1580    7.1110 hc        1 PZ3      0.080700
     80 HBCA        2.5150    1.0930    5.9040 hc        1 PZ3      0.080700
     81 HBE         6.5050    1.0150    5.4080 h1        1 PZ3      0.075700
     82 HBEA        5.6720    1.8280    6.7980 h1        1 PZ3      0.075700
     83 HBF         3.6270    0.1370    9.3970 h1        1 PZ3      0.064200
     84 HBFA        4.8540    1.3210    8.7410 h1        1 PZ3      0.064200
     85 HNBH       -3.9400   -0.9920   11.4560 hn        1 PZ3      0.472800
     86 HBX         3.3090   -0.9420    7.2450 h1        1 PZ3      0.058700
     87 OBJ        -1.3980    0.5000   10.6450 os        1 PZ3     -0.309200
     88 HAH        -7.6620   -0.0460   15.9710 ha        1 PZ3      0.162000
     89 HBH2       -2.8310   -0.1320   12.3650 hn        1 PZ3      0.472800
     90 CBD         5.1520   -2.0210    9.2010 c3        1 PZ3      0.264100
     91 CAG        12.9100    2.3640    5.1260 c         1 PZ3      0.489400
     92 HAI        -5.5400    1.2320   16.2960 ha        1 PZ3      0.161000
     93 HBD         6.0770   -2.6260    9.4330 h1        1 PZ3      0.061700
     94 HBDA        4.7170   -2.4140    8.2350 h1        1 PZ3      0.061700
@<TRIPOS>BOND
     1    1   33 1
     2    1   52 1
     3    1   53 1
     4    1   54 1
     5    2   50 1
     6    2   55 1
     7    2   56 1
     8    2   57 1
     9    3   91 2
    10    4   35 2
    11    5   51 2
    12    6   49 1
    13    6   51 1
    14    7    8 ar
    15    7    9 ar
    16    7   88 1
    17    8   10 ar
    18    8   92 1
    19    9   11 ar
    20    9   59 1
    21   10   36 ar
    22   10   60 1
    23   11   36 ar
    24   11   61 1
    25   12   15 ar
    26   12   37 ar
    27   12   62 1
    28   13   16 ar
    29   13   37 ar
    30   13   63 1
    31   14   22 1
    32   14   38 2
    33   14   64 1
    34   15   40 ar
    35   15   65 1
    36   16   40 ar
    37   16   66 1
    38   17   20 ar
    39   17   39 ar
    40   17   67 1
    41   18   21 ar
    42   18   39 ar
    43   18   68 1
    44   19   23 ar
    45   19   41 ar
    46   19   69 1
    47   20   42 ar
    48   20   70 1
    49   21   42 ar
    50   21   71 1
    51   22   45 2
    52   22   72 1
    53   23   46 ar
    54   23   73 1
    55   24   31 1
    56   24   44 2
    57   24   74 1
    58   25   31 2
    59   25   50 1
    60   25   75 1
    61   26   41 ar
    62   26   43 ar
    63   26   76 1
    64   27   32 1
    65   27   36 1
    66   27   77 1
    67   27   78 1
    68   28   37 1
    69   28   47 1
    70   28   79 1
    71   28   80 1
    72   29   43 1
    73   29   49 1
    74   29   81 1
    75   29   82 1
    76   30   47 1
    77   30   48 1
    78   30   83 1
    79   30   84 1
    80   32   35 1
    81   32   85 1
    82   32   89 1
    83   33   39 1
    84   34   38 1
    85   34   45 1
    86   35   87 1
    87   38   91 1
    88   40   87 1
    89   41   45 1
    90   42   51 1
    91   43   46 ar
    92   44   50 1
    93   44   90 1
    94   46   48 1
    95   47   49 1
    96   47   86 1
    97   48   90 1
    98   58   91 1
    99   90   93 1
   100   90   94 1
@<TRIPOS>SUBSTRUCTURE
     1 PZ3         1 TEMP              0 ****  ****    0 ROOT
