@<TRIPOS>MOLECULE
PZ5
   55    58     1     0     0
SMALL
bcc


@<TRIPOS>ATOM
      1 C29         -0.8680    -0.0150    -2.4980 c1         1 PZ5      -0.098500
      2 C28         -0.4910    -0.0000    -1.3870 c1         1 PZ5      -0.228100
      3 C27          0.0000     0.0000     0.0000 c3         1 PZ5       0.116700
      4 C26          1.5310     0.0000     0.0000 c3         1 PZ5      -0.042400
      5 C25          2.0410     0.0000     1.4420 c3         1 PZ5      -0.053400
      6 C21          3.5710    -0.0000     1.4420 c3         1 PZ5      -0.083400
      7 C20          4.0810    -0.0000     2.8850 c3         1 PZ5      -0.235700
      8 N2           5.5460    -0.0000     2.8840 na         1 PZ5       0.694900
      9 C7           6.1680     1.1510     2.9900 cp         1 PZ5      -0.072300
     10 C8           5.3830     2.4000     3.1050 cp         1 PZ5      -0.167000
     11 C13          4.4940     2.5740     4.1670 ca         1 PZ5      -0.061500
     12 C12          3.7650     3.7400     4.2690 ca         1 PZ5      -0.074500
     13 C11          3.9130     4.7380     3.3210 ca         1 PZ5      -0.054000
     14 C10          4.7930     4.5710     2.2660 ca         1 PZ5      -0.074500
     15 C9           5.5320     3.4120     2.1570 ca         1 PZ5      -0.061500
     16 C14          7.6320     1.2130     2.9960 ca         1 PZ5      -0.018000
     17 C16          8.3600     0.0050     2.8860 ca         1 PZ5      -0.013000
     18 C17          9.7530     0.0270     2.8870 ca         1 PZ5      -0.082000
     19 C18         10.4110     1.2200     2.9960 ca         1 PZ5      -0.071000
     20 C19          9.7030     2.4180     3.1070 ca         1 PZ5       0.008600
     21 N3          10.3980     3.6240     3.2180 nv         1 PZ5      -0.445200
     22 C15          8.3200     2.4220     3.1060 ca         1 PZ5      -0.157000
     23 C4           7.5960    -1.2420     2.7700 ca         1 PZ5      -0.039000
     24 C6           6.1830    -1.1760     2.7820 ca         1 PZ5      -0.208300
     25 C3           8.2390    -2.4760     2.6570 ca         1 PZ5      -0.045000
     26 C2           7.5060    -3.6220     2.5510 ca         1 PZ5      -0.109000
     27 C1           6.1100    -3.5730     2.5550 ca         1 PZ5       0.129600
     28 N1           5.3770    -4.7560     2.4450 nv         1 PZ5      -0.402200
     29 C5           5.4490    -2.3680     2.6760 ca         1 PZ5      -0.216000
     30 H1          -1.6190     0.1100    -3.2690 ha         1 PZ5       0.143500
     31 H2          -0.4810     0.9360     0.2560 hc         1 PZ5       0.054200
     32 H3          -0.4010    -0.9910     0.1720 hc         1 PZ5       0.054200
     33 H4           2.1170     0.5530    -0.7230 hc         1 PZ5       0.030700
     34 H5           2.0940    -0.9200     0.0980 hc         1 PZ5       0.030700
     35 H6           1.5960     0.7560     2.0780 hc         1 PZ5       0.028700
     36 H7           2.1650    -1.0190     1.7880 hc         1 PZ5       0.028700
     37 H8           3.7960    -0.9610     0.9950 hc         1 PZ5       0.040200
     38 H9           3.8240     0.8240     0.7860 hc         1 PZ5       0.040200
     39 H10          3.4290    -0.4010     3.6520 h1         1 PZ5       0.107200
     40 H11          3.9080     1.0620     2.7610 h1         1 PZ5       0.107200
     41 H12          4.4060     1.5820     4.5910 ha         1 PZ5       0.108500
     42 H13          3.1040     3.8410     5.1210 ha         1 PZ5       0.122500
     43 H14          3.3850     5.6090     3.6910 ha         1 PZ5       0.127000
     44 H15          4.9560     5.4280     1.6240 ha         1 PZ5       0.122500
     45 H16          6.0590     3.0320     1.2900 ha         1 PZ5       0.108500
     46 H17         10.3480    -0.8750     2.8080 ha         1 PZ5       0.128000
     47 H18         11.4740     1.0590     2.8670 ha         1 PZ5       0.129000
     48 H19         11.0040     3.5470     4.0100 hn         1 PZ5       0.284800
     49 H20          9.9170     4.4320     2.8740 hn         1 PZ5       0.284800
     50 H21          8.3480     3.3890     2.6200 ha         1 PZ5       0.151000
     51 H22          9.2470    -2.4160     2.2650 ha         1 PZ5       0.128000
     52 H23          8.0810    -4.4350     2.1260 ha         1 PZ5       0.132000
     53 H24          5.8930    -5.6080     2.5430 hn         1 PZ5       0.263800
     54 H25          4.4650    -5.1420     2.5880 hn         1 PZ5       0.263800
     55 H26          4.3690    -2.3430     2.7570 ha         1 PZ5       0.139000
@<TRIPOS>BOND
     1     1     2 3   
     2     1    30 1   
     3     2     3 1   
     4     3     4 1   
     5     3    31 1   
     6     3    32 1   
     7     4     5 1   
     8     4    33 1   
     9     4    34 1   
    10     5     6 1   
    11     5    35 1   
    12     5    36 1   
    13     6     7 1   
    14     6    37 1   
    15     6    38 1   
    16     7     8 1   
    17     7    39 1   
    18     7    40 1   
    19     8     9 1   
    20     8    24 2   
    21     9    10 1   
    22     9    16 ar  
    23    10    11 ar  
    24    10    15 ar  
    25    11    12 ar  
    26    11    41 1   
    27    12    13 ar  
    28    12    42 1   
    29    13    14 ar  
    30    13    43 1   
    31    14    15 ar  
    32    14    44 1   
    33    15    45 1   
    34    16    17 ar  
    35    16    22 ar  
    36    17    18 ar  
    37    17    23 ar  
    38    18    19 ar  
    39    18    46 1   
    40    19    20 ar  
    41    19    47 1   
    42    20    21 1   
    43    20    22 ar  
    44    21    48 1   
    45    21    49 1   
    46    22    50 1   
    47    23    24 ar  
    48    23    25 ar  
    49    24    29 ar  
    50    25    26 ar  
    51    25    51 1   
    52    26    27 ar  
    53    26    52 1   
    54    27    28 1   
    55    27    29 ar  
    56    28    53 1   
    57    28    54 1   
    58    29    55 1   
@<TRIPOS>SUBSTRUCTURE
     1 PZ5         1 TEMP              0 ****  ****    0 ROOT
