@<TRIPOS>MOLECULE
molecule
   55    58     1     0     0
SMALL
bcc


@<TRIPOS>ATOM
      1 C29         -0.8680    -0.0150    -2.4980 c1         1 PZ5      -0.134500
      2 C28         -0.4910    -0.0000    -1.3870 c1         1 PZ5      -0.200100
      3 C27          0.0000     0.0000     0.0000 c3         1 PZ5       0.015700
      4 C26          1.5310     0.0000     0.0000 c3         1 PZ5      -0.087400
      5 C25          2.0410     0.0000     1.4420 c3         1 PZ5      -0.103400
      6 C21          3.5710    -0.0000     1.4420 c3         1 PZ5      -0.134400
      7 C20          4.0810    -0.0000     2.8850 c3         1 PZ5      -0.076700
      8 N2           5.5460    -0.0000     2.8840 na         1 PZ5       0.077900
      9 C7           6.1680     1.1510     2.9900 cp         1 PZ5       0.167700
     10 C8           5.3830     2.4000     3.1050 cp         1 PZ5      -0.162000
     11 C13          4.4940     2.5740     4.1670 ca         1 PZ5      -0.085000
     12 C12          3.7650     3.7400     4.2690 ca         1 PZ5      -0.110000
     13 C11          3.9130     4.7380     3.3210 ca         1 PZ5      -0.082000
     14 C10          4.7930     4.5710     2.2660 ca         1 PZ5      -0.110000
     15 C9           5.5320     3.4120     2.1570 ca         1 PZ5      -0.085000
     16 C14          7.6320     1.2130     2.9960 ca         1 PZ5      -0.055000
     17 C16          8.3600     0.0050     2.8860 ca         1 PZ5       0.012000
     18 C17          9.7530     0.0270     2.8870 ca         1 PZ5      -0.119000
     19 C18         10.4110     1.2200     2.9960 ca         1 PZ5      -0.095000
     20 C19          9.7030     2.4180     3.1070 ca         1 PZ5       0.132600
     21 N3          10.3980     3.6240     3.2180 nv         1 PZ5      -0.886200
     22 C15          8.3200     2.4220     3.1060 ca         1 PZ5      -0.163000
     23 C4           7.5960    -1.2420     2.7700 ca         1 PZ5      -0.085000
     24 C6           6.1830    -1.1760     2.7820 ca         1 PZ5       0.011700
     25 C3           8.2390    -2.4760     2.6570 ca         1 PZ5      -0.059000
     26 C2           7.5060    -3.6220     2.5510 ca         1 PZ5      -0.163000
     27 C1           6.1100    -3.5730     2.5550 ca         1 PZ5       0.293600
     28 N1           5.3770    -4.7560     2.4450 nv         1 PZ5      -0.894200
     29 C5           5.4490    -2.3680     2.6760 ca         1 PZ5      -0.235000
     30 H1          -1.6190     0.1100    -3.2690 ha         1 PZ5       0.169500
     31 H2          -0.4810     0.9360     0.2560 hc         1 PZ5       0.093200
     32 H3          -0.4010    -0.9910     0.1720 hc         1 PZ5       0.093200
     33 H4           2.1170     0.5530    -0.7230 hc         1 PZ5       0.059700
     34 H5           2.0940    -0.9200     0.0980 hc         1 PZ5       0.059700
     35 H6           1.5960     0.7560     2.0780 hc         1 PZ5       0.052200
     36 H7           2.1650    -1.0190     1.7880 hc         1 PZ5       0.052200
     37 H8           3.7960    -0.9610     0.9950 hc         1 PZ5       0.064200
     38 H9           3.8240     0.8240     0.7860 hc         1 PZ5       0.064200
     39 H10          3.4290    -0.4010     3.6520 h1         1 PZ5       0.119700
     40 H11          3.9080     1.0620     2.7610 h1         1 PZ5       0.119700
     41 H12          4.4060     1.5820     4.5910 ha         1 PZ5       0.138000
     42 H13          3.1040     3.8410     5.1210 ha         1 PZ5       0.157000
     43 H14          3.3850     5.6090     3.6910 ha         1 PZ5       0.163000
     44 H15          4.9560     5.4280     1.6240 ha         1 PZ5       0.157000
     45 H16          6.0590     3.0320     1.2900 ha         1 PZ5       0.138000
     46 H17         10.3480    -0.8750     2.8080 ha         1 PZ5       0.158000
     47 H18         11.4740     1.0590     2.8670 ha         1 PZ5       0.163000
     48 H19         11.0040     3.5470     4.0100 hn         1 PZ5       0.441800
     49 H20          9.9170     4.4320     2.8740 hn         1 PZ5       0.441800
     50 H21          8.3480     3.3890     2.6200 ha         1 PZ5       0.173000
     51 H22          9.2470    -2.4160     2.2650 ha         1 PZ5       0.158000
     52 H23          8.0810    -4.4350     2.1260 ha         1 PZ5       0.162000
     53 H24          5.8930    -5.6080     2.5430 hn         1 PZ5       0.428800
     54 H25          4.4650    -5.1420     2.5880 hn         1 PZ5       0.428800
     55 H26          4.3690    -2.3430     2.7570 ha         1 PZ5       0.157000
@<TRIPOS>BOND
     1     1     2 3
     2     2     3 1
     3     4     3 1
     4     4     5 1
     5    13    12 ar
     6    13    14 ar
     7    12    11 ar
     8     5     6 1
     9    14    15 ar
    10    11    10 ar
    11     6     7 1
    12    15    10 ar
    13     7     8 1
    14    10     9 1
    15     9     8 1
    16     9    16 ar
    17     8    24 2
    18    29    24 ar
    19    29    27 ar
    20    24    23 ar
    21    16    22 ar
    22    16    17 ar
    23    22    20 ar
    24    28    27 1
    25    27    26 ar
    26    23    17 ar
    27    23    25 ar
    28    17    18 ar
    29    20    21 1
    30    20    19 ar
    31    26    25 ar
    32    18    19 ar
    33     1    30 1
    34     3    31 1
    35     3    32 1
    36     4    33 1
    37     4    34 1
    38     5    35 1
    39     5    36 1
    40     6    37 1
    41     6    38 1
    42     7    39 1
    43     7    40 1
    44    11    41 1
    45    12    42 1
    46    13    43 1
    47    14    44 1
    48    15    45 1
    49    18    46 1
    50    19    47 1
    51    21    48 1
    52    21    49 1
    53    22    50 1
    54    25    51 1
    55    26    52 1
    56    28    53 1
    57    28    54 1
    58    29    55 1
@<TRIPOS>SUBSTRUCTURE
     1 PZ5         1 TEMP              0 ****  ****    0 ROOT
