@<TRIPOS>MOLECULE
PZA
   15    15     1     0     0
SMALL
bcc


@<TRIPOS>ATOM
      1 C            0.0000     0.0000     0.0000 c          1 PZA       0.261600
      2 N1           1.3470     0.0000     0.0000 nz         1 PZA       0.213600
      3 O           -0.6070     0.0000     1.0530 o          1 PZA      -0.416100
      4 C1          -0.7420    -0.0030    -3.5740 ca         1 PZA       0.307900
      5 C2          -2.1300    -0.0030    -3.5730 ca         1 PZA       0.387900
      6 N2          -2.7920    -0.0030    -2.4300 nb         1 PZA      -0.523000
      7 C3          -2.1350    -0.0020    -1.2830 ca         1 PZA       0.424900
      8 C4          -0.7420    -0.0010    -1.2830 ca         1 PZA       0.100500
      9 N3          -0.0790     0.0030    -2.4360 nb         1 PZA      -0.558000
     10 H1           1.6810     0.8170    -0.4710 hn         1 PZA       0.249467
     11 H2           1.6810    -0.0000     0.9440 hn         1 PZA       0.249467
     12 H4          -2.6790    -0.0020    -0.3460 h4         1 PZA       0.019100
     13 H3          -0.2030    -0.0010    -4.5140 h4         1 PZA       0.017100
     14 H13          1.6810    -0.8170    -0.4720 hn         1 PZA       0.249467
     15 H5          -2.6710    -0.0060    -4.5110 h4         1 PZA       0.016100
@<TRIPOS>BOND
     1     1     2 1   
     2     1     3 2   
     3     1     8 1   
     4     2    10 1   
     5     2    11 1   
     6     2    14 1   
     7     4     5 ar  
     8     4     9 ar  
     9     4    13 1   
    10     5     6 ar  
    11     5    15 1   
    12     6     7 ar  
    13     7     8 ar  
    14     7    12 1   
    15     8     9 ar  
@<TRIPOS>SUBSTRUCTURE
     1 PZA         1 TEMP              0 ****  ****    0 ROOT
