@<TRIPOS>MOLECULE
molecule
   32    34     1     0     0
SMALL
bcc


@<TRIPOS>ATOM
      1 CAF          0.0000     0.0000     0.0000 ca         1 PZB      -0.145000
      2 CAD          1.3810     0.0000     0.0000 ca         1 PZB      -0.117500
      3 CAC          2.0740     0.0000     1.1970 ca         1 PZB      -0.135000
      4 CAE          1.3860     0.0000     2.3970 ca         1 PZB      -0.117500
      5 CAG          0.0060     0.0000     2.4020 ca         1 PZB      -0.145000
      6 CAQ         -0.6920     0.0060     1.2030 ca         1 PZB       0.102100
      7 OAN         -2.0510     0.0070     1.2060 os         1 PZB      -0.235200
      8 CAR         -2.6890     1.1260     1.6460 cc         1 PZB      -0.076200
      9 CAJ         -2.1010     2.2980     1.9850 cd         1 PZB      -0.188300
     10 NAM         -3.0810     3.1590     2.3710 na         1 PZB      -0.046600
     11 NAL         -4.3090     2.4930     2.2670 nc         1 PZB      -0.459800
     12 CAT         -4.0810     1.2730     1.8260 cd         1 PZB       0.402800
     13 CAS         -5.1070     0.2330     1.5730 ca         1 PZB      -0.145500
     14 CAI         -4.7280    -1.0220     1.1040 ca         1 PZB      -0.068000
     15 CAH         -5.6840    -1.9890     0.8700 ca         1 PZB      -0.181000
     16 CAO         -7.0250    -1.7140     1.1000 ca         1 PZB       0.137100
     17 OAA         -7.9630    -2.6690     0.8670 oh         1 PZB      -0.524100
     18 CAK         -7.4120    -0.4660     1.5660 ca         1 PZB      -0.232000
     19 CAP         -6.4580     0.5080     1.8100 ca         1 PZB       0.156100
     20 OAB         -6.8340     1.7310     2.2670 oh         1 PZB      -0.486100
     21 H1          -0.5420     0.0020    -0.9380 ha         1 PZB       0.145000
     22 H2           1.9220    -0.0020    -0.9380 ha         1 PZB       0.134500
     23 H3           3.1570    -0.0000     1.1950 ha         1 PZB       0.133000
     24 H4           1.9310    -0.0020     3.3330 ha         1 PZB       0.134500
     25 H5          -0.5320     0.0030     3.3420 ha         1 PZB       0.145000
     26 H6          -1.0390     2.5120     1.9530 h4         1 PZB       0.179000
     27 H7          -2.9470     4.1020     2.6780 hn         1 PZB       0.336700
     28 H8          -3.6820    -1.2400     0.9240 ha         1 PZB       0.165000
     29 H9          -5.3870    -2.9650     0.5050 ha         1 PZB       0.144000
     30 H10         -8.2930    -2.5780    -0.0110 ho         1 PZB       0.422000
     31 H11         -8.4590    -0.2550     1.7470 ha         1 PZB       0.145000
     32 H12         -7.4320     1.6260     2.9880 ho         1 PZB       0.420000
@<TRIPOS>BOND
     1    17    16 1
     2    16    15 ar
     3    16    18 ar
     4    15    14 ar
     5    18    19 ar
     6    14    13 ar
     7    19    13 ar
     8    19    20 1
     9    13    12 1
    10    11    12 2
    11    11    10 1
    12    12     8 1
    13    10     9 1
    14     8     9 2
    15     8     7 1
    16     7     6 1
    17     5     6 ar
    18     5     4 ar
    19     6     1 ar
    20     4     3 ar
    21     1     2 ar
    22     3     2 ar
    23     1    21 1
    24     2    22 1
    25     3    23 1
    26     4    24 1
    27     5    25 1
    28     9    26 1
    29    10    27 1
    30    14    28 1
    31    15    29 1
    32    17    30 1
    33    18    31 1
    34    20    32 1
@<TRIPOS>SUBSTRUCTURE
     1 PZB         1 TEMP              0 ****  ****    0 ROOT
