@<TRIPOS>MOLECULE
PZB
   32    34     1     0     0
SMALL
bcc


@<TRIPOS>ATOM
      1 CAF        -0.3230    0.0750   -0.4100 ca        1 PZB     -0.171500
      2 CAD         0.7770   -0.7560   -0.2220 ca        1 PZB     -0.102500
      3 CAC         1.1940   -1.1020    1.0660 ca        1 PZB     -0.161000
      4 CAE         0.5050   -0.6170    2.1760 ca        1 PZB     -0.102500
      5 CAG        -0.6020    0.2150    2.0130 ca        1 PZB     -0.171500
      6 CAQ        -1.0080    0.5570    0.7190 ca        1 PZB      0.109100
      7 OAN        -2.1080    1.3640    0.4280 os        1 PZB     -0.206200
      8 CAR        -2.6960    1.9890    1.4970 cc        1 PZB     -0.089200
      9 CAJ        -2.3130    3.2160    2.0690 cd        1 PZB     -0.151300
     10 NAM        -3.3060    3.5150    2.9980 na        1 PZB     -0.013600
     11 NAL        -4.2730    2.5990    3.0460 nd        1 PZB     -0.483800
     12 CAT        -3.9540    1.6260    2.1380 cc        1 PZB      0.385800
     13 CAS        -4.7440    0.4370    1.8780 ca        1 PZB     -0.178500
     14 CAI        -4.0980   -0.8000    1.7520 ca        1 PZB     -0.037000
     15 CAH        -4.8090   -1.9710    1.5180 ca        1 PZB     -0.251000
     16 CAO        -6.2070   -1.9110    1.4020 ca        1 PZB      0.170100
     17 OAA        -6.9800   -3.0250    1.1770 oh        1 PZB     -0.496100
     18 CAK        -6.8880   -0.6930    1.5080 ca        1 PZB     -0.257000
     19 CAP        -6.1490    0.4760    1.7420 ca        1 PZB      0.189100
     20 OAB        -6.7690    1.6980    1.8250 oh        1 PZB     -0.476100
     21 H1         -0.6650    0.3560   -1.4160 ha        1 PZB      0.149500
     22 H2          1.3220   -1.1410   -1.0970 ha        1 PZB      0.133500
     23 H3          2.0660   -1.7570    1.2020 ha        1 PZB      0.133000
     24 H4          0.8330   -0.8900    3.1900 ha        1 PZB      0.133500
     25 H5         -1.1490    0.6010    2.8860 ha        1 PZB      0.149500
     26 H6         -1.4510    3.8560    1.8870 h4        1 PZB      0.187000
     27 H7         -3.3670    4.3300    3.5620 hn        1 PZB      0.326700
     28 H8         -2.9970   -0.8340    1.8320 ha        1 PZB      0.148000
     29 H9         -4.2840   -2.9310    1.4230 ha        1 PZB      0.138000
     30 H10        -6.3890   -3.7900    1.1150 ho        1 PZB      0.422000
     31 H11        -7.9810   -0.6640    1.4060 ha        1 PZB      0.153000
     32 H12        -7.7230    1.5560    1.7350 ho        1 PZB      0.420000
@<TRIPOS>BOND
     1    1    2 ar  
     2    1    6 ar  
     3    1   21 1   
     4    2    3 ar  
     5    2   22 1   
     6    3    4 ar  
     7    3   23 1   
     8    4    5 ar  
     9    4   24 1   
    10    5    6 ar  
    11    5   25 1   
    12    6    7 1   
    13    7    8 1   
    14    8    9 2   
    15    8   12 1   
    16    9   10 1   
    17    9   26 1   
    18   10   11 1   
    19   10   27 1   
    20   11   12 2   
    21   12   13 1   
    22   13   14 ar  
    23   13   19 ar  
    24   14   15 ar  
    25   14   28 1   
    26   15   16 ar  
    27   15   29 1   
    28   16   17 1   
    29   16   18 ar  
    30   17   30 1   
    31   18   19 ar  
    32   18   31 1   
    33   19   20 1   
    34   20   32 1   
@<TRIPOS>SUBSTRUCTURE
     1 PZB         1 TEMP              0 ****  ****    0 ROOT
