@<TRIPOS>MOLECULE
molecule
   51    55     1     0     0
SMALL
bcc


@<TRIPOS>ATOM
      1 C1A          0.0000     0.0000     0.0000 ca         1 PZD       0.155100
      2 C2A          1.3960     0.0000     0.0000 ca         1 PZD       0.095100
      3 C3A          2.0840     0.0000     1.2020 ca         1 PZD      -0.128000
      4 C4A          1.3460    -0.0160     2.3790 ca         1 PZD      -0.162600
      5 C5A         -0.0310    -0.0930     2.3950 ca         1 PZD       0.153600
      6 C6A         -0.7200    -0.0430     1.1830 ca         1 PZD      -0.256000
      7 C7A          1.9840     0.0800     3.7290 c          1 PZD       0.749100
      8 N1A          1.5930    -0.8640     4.6350 n          1 PZD      -0.375000
      9 C8A          0.8400    -2.0600     4.1480 c3         1 PZD       0.065700
     10 C10          1.8390    -0.9780     5.9670 c2         1 PZD       0.026600
     11 C11          1.5570    -2.1880     6.4490 ce         1 PZD      -0.207400
     12 C12          1.0040    -3.0440     5.3320 c3         1 PZD      -0.044200
     13 O1A          2.7960     0.9430     4.0010 o          1 PZD      -0.607500
     14 C13          1.2060    -2.4480    10.1840 ca         1 PZD      -0.033000
     15 C14          2.1510    -3.4670    10.4670 ca         1 PZD      -0.037000
     16 C15          2.3350    -3.8850    11.7940 ca         1 PZD      -0.116000
     17 C16          1.6060    -3.3090    12.7900 ca         1 PZD      -0.127000
     18 C17          0.6770    -2.3080    12.5130 ca         1 PZD      -0.126000
     19 C18          0.4720    -1.8770    11.2390 ca         1 PZD      -0.116000
     20 C19          1.0150    -2.0310     8.8590 ca         1 PZD      -0.111000
     21 C20          1.7530    -2.6210     7.8450 ca         1 PZD      -0.013800
     22 C21          2.6880    -3.6320     8.1390 ca         1 PZD      -0.115000
     23 C22          2.8890    -4.0440     9.4160 ca         1 PZD      -0.117000
     24 O2A          2.0790     0.0010    -1.1770 os         1 PZD      -0.311900
     25 C23          3.5060     0.0000    -1.0990 c3         1 PZD       0.125700
     26 O3A         -0.6660     0.0470    -1.1830 os         1 PZD      -0.308900
     27 C24         -2.0940     0.0450    -1.1240 c3         1 PZD       0.126700
     28 C9A         -0.7100    -1.6630     4.2040 c3         1 PZD       0.183800
     29 N2A         -0.6940    -0.3100     3.5750 nu         1 PZD      -0.742600
     30 H8A          1.1750    -2.4470     3.1940 h1         1 PZD       0.092700
     31 H24         -2.4330     0.8990    -0.5500 h1         1 PZD       0.042367
     32 H24A        -2.4350    -0.8680    -0.6500 h1         1 PZD       0.042367
     33 H24B        -2.4970     0.1020    -2.1280 h1         1 PZD       0.042367
     34 H23          3.8400     0.8970    -0.5910 h1         1 PZD       0.042700
     35 H23A         3.8380    -0.8720    -0.5490 h1         1 PZD       0.042700
     36 H23B         3.9220    -0.0240    -2.0990 h1         1 PZD       0.042700
     37 H3A          3.1670    -0.0000     1.2250 ha         1 PZD       0.160000
     38 H6A         -1.8030    -0.0420     1.1670 ha         1 PZD       0.145000
     39 H22          3.6120    -4.8220     9.6270 ha         1 PZD       0.132000
     40 H15          3.0530    -4.6620    12.0250 ha         1 PZD       0.131000
     41 H17          0.1100    -1.8670    13.3240 ha         1 PZD       0.128000
     42 H18         -0.2530    -1.0980    11.0390 ha         1 PZD       0.132000
     43 H21          3.2550    -4.0850     7.3350 ha         1 PZD       0.131000
     44 H19          0.3980    -1.1660     8.6460 ha         1 PZD       0.139000
     45 H10          2.6150    -0.3780     6.4270 h4         1 PZD       0.177000
     46 H12          1.7850    -3.7430     5.0550 hc         1 PZD       0.068700
     47 H12A         0.0080    -3.3480     5.6310 hc         1 PZD       0.068700
     48 H9A         -1.0420    -1.5930     5.2330 h1         1 PZD       0.057200
     49 HN2A        -1.6300     0.0350     3.4990 hn         1 PZD       0.373800
     50 H9AA        -1.2940    -2.3490     3.6020 h1         1 PZD       0.057200
     51 H16          1.7500    -3.6350    13.8130 ha         1 PZD       0.128000
@<TRIPOS>BOND
     1    26     1 1
     2     6     1 ar
     3     1     2 ar
     4     2    24 1
     5     2     3 ar
     6     4     3 ar
     7     3    37 1
     8     5     4 ar
     9     4     7 1
    10     6     5 ar
    11    29     5 1
    12    38     6 1
    13     8     7 1
    14     7    13 2
    15     9     8 1
    16     8    10 1
    17    28     9 1
    18    30     9 1
    19    12     9 1
    20    11    10 2
    21    10    45 1
    22    12    11 1
    23    11    21 1
    24    47    12 1
    25    46    12 1
    26    19    14 ar
    27    20    14 ar
    28    14    15 ar
    29    15    16 ar
    30    15    23 ar
    31    17    16 ar
    32    16    40 1
    33    18    17 ar
    34    17    51 1
    35    41    18 1
    36    19    18 ar
    37    42    19 1
    38    44    20 1
    39    20    21 ar
    40    21    22 ar
    41    22    23 ar
    42    22    43 1
    43    23    39 1
    44    24    25 1
    45    36    25 1
    46    25    34 1
    47    25    35 1
    48    27    26 1
    49    32    27 1
    50    27    31 1
    51    27    33 1
    52    48    28 1
    53    28    29 1
    54    28    50 1
    55    49    29 1
@<TRIPOS>SUBSTRUCTURE
     1 PZD         1 TEMP              0 ****  ****    0 ROOT
