@<TRIPOS>MOLECULE
PZD
   51    55     1     0     0
SMALL
bcc


@<TRIPOS>ATOM
      1 C1A          0.0000     0.0000     0.0000 ca         1 PZD       0.157100
      2 C2A          1.3960     0.0000     0.0000 ca         1 PZD       0.099100
      3 C3A          2.0840     0.0000     1.2020 ca         1 PZD      -0.107000
      4 C4A          1.3460    -0.0160     2.3790 ca         1 PZD      -0.170600
      5 C5A         -0.0310    -0.0930     2.3950 ca         1 PZD       0.050600
      6 C6A         -0.7200    -0.0430     1.1830 ca         1 PZD      -0.238000
      7 C7A          1.9840     0.0800     3.7290 c          1 PZD       0.672100
      8 N1A          1.5930    -0.8640     4.6350 n          1 PZD       0.006000
      9 C8A          0.8400    -2.0600     4.1480 c3         1 PZD      -0.033300
     10 C10          1.8390    -0.9780     5.9670 c2         1 PZD      -0.096400
     11 C11          1.5570    -2.1880     6.4490 ce         1 PZD      -0.201400
     12 C12          1.0040    -3.0440     5.3320 c3         1 PZD       0.026800
     13 O1A          2.7960     0.9430     4.0010 o          1 PZD      -0.645500
     14 C13          1.2060    -2.4480    10.1840 ca         1 PZD      -0.032000
     15 C14          2.1510    -3.4670    10.4670 ca         1 PZD      -0.038000
     16 C15          2.3350    -3.8850    11.7940 ca         1 PZD      -0.087000
     17 C16          1.6060    -3.3090    12.7900 ca         1 PZD      -0.102000
     18 C17          0.6770    -2.3080    12.5130 ca         1 PZD      -0.100000
     19 C18          0.4720    -1.8770    11.2390 ca         1 PZD      -0.089000
     20 C19          1.0150    -2.0310     8.8590 ca         1 PZD      -0.087000
     21 C20          1.7530    -2.6210     7.8450 ca         1 PZD      -0.003800
     22 C21          2.6880    -3.6320     8.1390 ca         1 PZD      -0.094000
     23 C22          2.8890    -4.0440     9.4160 ca         1 PZD      -0.088000
     24 O2A          2.0790     0.0010    -1.1770 os         1 PZD      -0.291900
     25 C23          3.5060     0.0000    -1.0990 c3         1 PZD       0.240700
     26 O3A         -0.6660     0.0470    -1.1830 os         1 PZD      -0.290900
     27 C24         -2.0940     0.0450    -1.1240 c3         1 PZD       0.241700
     28 C9A         -0.7100    -1.6630     4.2040 c3         1 PZD       0.150800
     29 N2A         -0.6940    -0.3100     3.5750 nu         1 PZD      -0.442600
     30 H8A          1.1750    -2.4470     3.1940 h1         1 PZD       0.064700
     31 H24         -2.4330     0.8990    -0.5500 h1         1 PZD      -0.002300
     32 H24A        -2.4350    -0.8680    -0.6500 h1         1 PZD      -0.002300
     33 H24B        -2.4970     0.1020    -2.1280 h1         1 PZD      -0.002300
     34 H23          3.8400     0.8970    -0.5910 h1         1 PZD      -0.001300
     35 H23A         3.8380    -0.8720    -0.5490 h1         1 PZD      -0.001300
     36 H23B         3.9220    -0.0240    -2.0990 h1         1 PZD      -0.001300
     37 H3A          3.1670    -0.0000     1.2250 ha         1 PZD       0.136000
     38 H6A         -1.8030    -0.0420     1.1670 ha         1 PZD       0.131000
     39 H22          3.6120    -4.8220     9.6270 ha         1 PZD       0.105000
     40 H15          3.0530    -4.6620    12.0250 ha         1 PZD       0.105000
     41 H17          0.1100    -1.8670    13.3240 ha         1 PZD       0.100000
     42 H18         -0.2530    -1.0980    11.0390 ha         1 PZD       0.106000
     43 H21          3.2550    -4.0850     7.3350 ha         1 PZD       0.104000
     44 H19          0.3980    -1.1660     8.6460 ha         1 PZD       0.113000
     45 H10          2.6150    -0.3780     6.4270 h4         1 PZD       0.147000
     46 H12          1.7850    -3.7430     5.0550 hc         1 PZD       0.040200
     47 H12A         0.0080    -3.3480     5.6310 hc         1 PZD       0.040200
     48 H9A         -1.0420    -1.5930     5.2330 h1         1 PZD       0.027200
     49 HN2A        -1.6300     0.0350     3.4990 hn         1 PZD       0.253800
     50 H9AA        -1.2940    -2.3490     3.6020 h1         1 PZD       0.027200
     51 H16          1.7500    -3.6350    13.8130 ha         1 PZD       0.100000
@<TRIPOS>BOND
     1     1     2 ar  
     2     1     6 ar  
     3     1    26 1   
     4     2     3 ar  
     5     2    24 1   
     6     3     4 ar  
     7     3    37 1   
     8     4     5 ar  
     9     4     7 1   
    10     5     6 ar  
    11     5    29 1   
    12     6    38 1   
    13     7     8 1   
    14     7    13 2   
    15     8     9 1   
    16     8    10 1   
    17     9    12 1   
    18     9    28 1   
    19     9    30 1   
    20    10    11 2   
    21    10    45 1   
    22    11    12 1   
    23    11    21 1   
    24    12    46 1   
    25    12    47 1   
    26    14    15 ar  
    27    14    19 ar  
    28    14    20 ar  
    29    15    16 ar  
    30    15    23 ar  
    31    16    17 ar  
    32    16    40 1   
    33    17    18 ar  
    34    17    51 1   
    35    18    19 ar  
    36    18    41 1   
    37    19    42 1   
    38    20    21 ar  
    39    20    44 1   
    40    21    22 ar  
    41    22    23 ar  
    42    22    43 1   
    43    23    39 1   
    44    24    25 1   
    45    25    34 1   
    46    25    35 1   
    47    25    36 1   
    48    26    27 1   
    49    27    31 1   
    50    27    32 1   
    51    27    33 1   
    52    28    29 1   
    53    28    48 1   
    54    28    50 1   
    55    29    49 1   
@<TRIPOS>SUBSTRUCTURE
     1 PZD         1 TEMP              0 ****  ****    0 ROOT
