@<TRIPOS>MOLECULE
molecule
   16    16     1     0     0
SMALL
bcc


@<TRIPOS>ATOM
      1 N7           0.0000     0.0000     0.0000 n7         1 PZE      -0.822200
      2 C8           1.4690     0.0000     0.0000 c3         1 PZE       0.158550
      3 C9           1.9770     0.0000     1.4440 c3         1 PZE       0.158550
      4 N10          1.4540    -1.1810     2.1440 n7         1 PZE      -0.822200
      5 C11         -0.0160    -1.1810     2.1440 c3         1 PZE       0.158550
      6 C12         -0.5230    -1.1810     0.7000 c3         1 PZE       0.158550
      7 HN7         -0.3340     0.0040    -0.9440 hn         1 PZE       0.353800
      8 H8           1.8300     0.8860    -0.5080 h1         1 PZE       0.038075
      9 H8A          1.8300    -0.8860    -0.5080 h1         1 PZE       0.038075
     10 H9           1.6350     0.8970     1.9460 h1         1 PZE       0.038075
     11 H9A          3.0600    -0.0310     1.4460 h1         1 PZE       0.038075
     12 HN10         1.7870    -1.1850     3.0880 hn         1 PZE       0.353800
     13 H11         -0.3760    -0.2950     2.6530 h1         1 PZE       0.038075
     14 H11A        -0.3760    -2.0680     2.6530 h1         1 PZE       0.038075
     15 H12         -1.6060    -1.1510     0.6990 h1         1 PZE       0.038075
     16 H12A        -0.1810    -2.0780     0.1980 h1         1 PZE       0.038075
@<TRIPOS>BOND
     1     1     2 1
     2     1     6 1
     3     2     3 1
     4     3     4 1
     5     4     5 1
     6     5     6 1
     7     1     7 1
     8     2     8 1
     9     2     9 1
    10     3    10 1
    11     3    11 1
    12     4    12 1
    13     5    13 1
    14     5    14 1
    15     6    15 1
    16     6    16 1
@<TRIPOS>SUBSTRUCTURE
     1 PZE         1 TEMP              0 ****  ****    0 ROOT
