@<TRIPOS>MOLECULE
PZF
   48    51     1     0     0
SMALL
bcc


@<TRIPOS>ATOM
      1 N3           0.0000     0.0000     0.0000 nb         1 PZF      -0.670000
      2 C4           1.3230     0.0000     0.0000 ca         1 PZF       0.657600
      3 C6           1.3520     0.0010     2.3910 ca         1 PZF       0.032000
      4 C13         -6.2560    -0.6300     6.0420 c3         1 PZF       0.018600
      5 C21         -6.5860    -1.6010     7.1470 ca         1 PZF      -0.171300
      6 C8          -0.9050     0.0050     5.9170 ca         1 PZF       0.247900
      7 C16         -4.8430    -1.1980     4.1240 c3         1 PZF       0.141800
      8 C19          1.2040    -0.0020    -2.3720 c3         1 PZF       0.251700
      9 C26         -5.8190    -2.7390     7.3190 ca         1 PZF      -0.094000
     10 C24         -7.1930    -3.3830     9.1770 ca         1 PZF       0.149900
     11 C23         -7.9560    -2.2410     9.0080 ca         1 PZF      -0.123000
     12 C22         -7.6530    -1.3500     7.9920 ca         1 PZF       0.137900
     13 F27         -8.3990    -0.2360     7.8260 f          1 PZF      -0.114900
     14 C25         -6.1210    -3.6300     8.3330 ca         1 PZF       0.097900
     15 F28         -5.3720    -4.7410     8.5010 f          1 PZF      -0.093900
     16 C17         -6.2760    -1.3470     4.6760 c3         1 PZF      -0.086500
     17 N20         -7.2400    -0.7000     3.7750 nz         1 PZF      -0.018600
     18 N15         -4.3000     0.0030     4.8110 nh         1 PZF      -0.481300
     19 C14         -4.8120    -0.1080     6.2010 c3         1 PZF       0.129800
     20 C12         -2.9150     0.0040     4.7910 ca         1 PZF       0.225200
     21 N7          -2.2230     0.0050     5.9260 nb         1 PZF       0.112000
     22 C11         -2.2250     0.0020     3.5790 ca         1 PZF      -0.328600
     23 C10         -0.8330     0.0020     3.6130 cp         1 PZF       0.519800
     24 N9          -0.2160     0.0040     4.7960 nb         1 PZF      -0.549000
     25 C1          -0.0490     0.0010     2.3550 cp         1 PZF      -0.369800
     26 C5           2.0380     0.0000     1.1930 ca         1 PZF      -0.252300
     27 O18          1.9920    -0.0010    -1.1800 os         1 PZF      -0.416100
     28 C2          -0.6940     0.0000     1.1210 ca         1 PZF       0.471200
     29 H6           1.8820    -0.0030     3.3350 ha         1 PZF       0.138000
     30 H13         -6.9390     0.2110     6.0270 hc         1 PZF       0.058700
     31 H8          -1.9710    -0.1810     5.9510 h5         1 PZF      -0.172900
     32 H161        -4.2520    -2.0730     4.3670 h1         1 PZF       0.048200
     33 H162        -4.8700    -1.0440     3.0520 h1         1 PZF       0.048200
     34 H191         1.8350    -0.2970    -3.2020 h1         1 PZF       0.005033
     35 H192         0.8100     0.9910    -2.5540 h1         1 PZF       0.005033
     36 H193         0.3890    -0.7090    -2.2720 h1         1 PZF       0.005033
     37 H26         -4.9760    -2.9400     6.6690 ha         1 PZF       0.127000
     38 H23         -8.7840    -2.0370     9.6760 ha         1 PZF       0.157000
     39 H17         -6.5230    -2.3940     4.8090 hx         1 PZF       0.107700
     40 H201        -7.5060    -1.6620     3.8500 hn         1 PZF       0.261133
     41 H202        -6.8670    -0.4290     2.8870 hn         1 PZF       0.261133
     42 H141        -4.2140    -0.8170     6.7600 h1         1 PZF       0.057700
     43 H142        -4.8220     0.8660     6.6750 h1         1 PZF       0.057700
     44 H11         -2.7460    -0.2820     2.6720 ha         1 PZF       0.132000
     45 H5           3.1210    -0.0030     1.1710 ha         1 PZF       0.139000
     46 H2          -1.7760    -0.0120     1.0930 h4         1 PZF      -0.032900
     47 F29         -7.4880    -4.2520    10.1680 f          1 PZF      -0.088900
     48 H203        -7.8580    -0.0530     4.2230 hn         1 PZF       0.261133
@<TRIPOS>BOND
     1     1     2 ar  
     2     1    28 ar  
     3     2    26 ar  
     4     2    27 1   
     5     3    25 ar  
     6     3    26 ar  
     7     3    29 1   
     8     4     5 1   
     9     4    16 1   
    10     4    19 1   
    11     4    30 1   
    12     5     9 ar  
    13     5    12 ar  
    14     6    21 ar  
    15     6    24 ar  
    16     6    31 1   
    17     7    16 1   
    18     7    18 1   
    19     7    32 1   
    20     7    33 1   
    21     8    27 1   
    22     8    34 1   
    23     8    35 1   
    24     8    36 1   
    25     9    14 ar  
    26     9    37 1   
    27    10    11 ar  
    28    10    14 ar  
    29    10    47 1   
    30    11    12 ar  
    31    11    38 1   
    32    12    13 1   
    33    14    15 1   
    34    16    17 1   
    35    16    39 1   
    36    17    40 1   
    37    17    41 1   
    38    17    48 1   
    39    18    19 1   
    40    18    20 1   
    41    19    42 1   
    42    19    43 1   
    43    20    21 ar  
    44    20    22 ar  
    45    22    23 ar  
    46    22    44 1   
    47    23    24 ar  
    48    23    25 1   
    49    25    28 ar  
    50    26    45 1   
    51    28    46 1   
@<TRIPOS>SUBSTRUCTURE
     1 PZF         1 TEMP              0 ****  ****    0 ROOT
