@<TRIPOS>MOLECULE
PZH
   18    18     1     0     0
SMALL
bcc


@<TRIPOS>ATOM
      1 N1           0.0000     0.0000     0.0000 nz         1 PZH       0.075400
      2 CB           1.4700     0.0000     0.0000 c3         1 PZH       0.040100
      3 CG           1.9720     0.0000     1.4200 ca         1 PZH      -0.214300
      4 CD1          2.2030    -1.1970     2.0720 ca         1 PZH      -0.063000
      5 CE1          2.6640    -1.1970     3.3760 ca         1 PZH      -0.060500
      6 CZ           2.8950     0.0010     4.0270 ca         1 PZH       0.053100
      7 CE2          2.6640     1.1990     3.3740 ca         1 PZH      -0.060500
      8 CD2          2.2080     1.1980     2.0700 ca         1 PZH      -0.063000
      9 Br           3.5270     0.0010     5.8090 br         1 PZH      -0.038100
     10 HN11        -0.3340     0.0150    -0.9430 hn         1 PZH       0.223133
     11 HN12        -0.3340    -0.8250     0.4580 hn         1 PZH       0.223133
     12 HB1          1.8310     0.8840    -0.5110 hx         1 PZH       0.082700
     13 HB2          1.8310    -0.8840    -0.5110 hx         1 PZH       0.082700
     14 HD1          2.0220    -2.1360     1.5620 ha         1 PZH       0.111000
     15 HE1          2.8440    -2.1350     3.8860 ha         1 PZH       0.138000
     16 HE2          2.8470     2.1370     3.8830 ha         1 PZH       0.138000
     17 HD2          2.0280     2.1360     1.5590 ha         1 PZH       0.111000
     18 H13         -0.3340     0.8330     0.4430 hn         1 PZH       0.223133
@<TRIPOS>BOND
     1     1     2 1   
     2     1    10 1   
     3     1    11 1   
     4     1    18 1   
     5     2     3 1   
     6     2    12 1   
     7     2    13 1   
     8     3     4 ar  
     9     3     8 ar  
    10     4     5 ar  
    11     4    14 1   
    12     5     6 ar  
    13     5    15 1   
    14     6     7 ar  
    15     6     9 1   
    16     7     8 ar  
    17     7    16 1   
    18     8    17 1   
@<TRIPOS>SUBSTRUCTURE
     1 PZH         1 TEMP              0 ****  ****    0 ROOT
