@<TRIPOS>MOLECULE
molecule
   18    18     1     0     0
SMALL
bcc


@<TRIPOS>ATOM
      1 N1           0.0000     0.0000     0.0000 nz         1 PZH      -0.810600
      2 CB           1.4700     0.0000     0.0000 c3         1 PZH       0.160100
      3 CG           1.9720     0.0000     1.4200 ca         1 PZH      -0.193300
      4 CD1          2.2030    -1.1970     2.0720 ca         1 PZH      -0.098000
      5 CE1          2.6640    -1.1970     3.3760 ca         1 PZH      -0.091000
      6 CZ           2.8950     0.0010     4.0270 ca         1 PZH       0.019100
      7 CE2          2.6640     1.1990     3.3740 ca         1 PZH      -0.091000
      8 CD2          2.2080     1.1980     2.0700 ca         1 PZH      -0.098000
      9 Br           3.5270     0.0010     5.8090 br         1 PZH      -0.018100
     10 HN11        -0.3340     0.0150    -0.9430 hn         1 PZH       0.455467
     11 HN12        -0.3340    -0.8250     0.4580 hn         1 PZH       0.455467
     12 HB1          1.8310     0.8840    -0.5110 hx         1 PZH       0.113700
     13 HB2          1.8310    -0.8840    -0.5110 hx         1 PZH       0.113700
     14 HD1          2.0220    -2.1360     1.5620 ha         1 PZH       0.141000
     15 HE1          2.8440    -2.1350     3.8860 ha         1 PZH       0.172000
     16 HE2          2.8470     2.1370     3.8830 ha         1 PZH       0.172000
     17 HD2          2.0280     2.1360     1.5590 ha         1 PZH       0.141000
     18 H13         -0.3340     0.8330     0.4430 hn         1 PZH       0.455467
@<TRIPOS>BOND
     1     1     2 1
     2     1    10 1
     3     1    11 1
     4     2     3 1
     5     2    12 1
     6     2    13 1
     7     3     4 ar
     8     3     8 ar
     9     4     5 ar
    10     4    14 1
    11     5     6 ar
    12     5    15 1
    13     6     7 ar
    14     6     9 1
    15     7     8 ar
    16     7    16 1
    17     8    17 1
    18    18     1 1
@<TRIPOS>SUBSTRUCTURE
     1 PZH         1 TEMP              0 ****  ****    0 ROOT
