@<TRIPOS>MOLECULE
molecule
   21    21     1     0     0
SMALL
bcc


@<TRIPOS>ATOM
      1 N01          0.0000     0.0000     0.0000 nz         1 PZI      -0.687400
      2 C02          1.3480     0.0000     0.0000 c          1 PZI       0.444100
      3 O03          1.9550     0.0000     1.0500 o          1 PZI      -0.378100
      4 C04          2.1020     0.0000    -1.3050 c3         1 PZI       0.059000
      5 N05          3.5420     0.0010    -1.0370 n          1 PZI      -0.495800
      6 C06          4.3560    -1.2100    -0.8850 c3         1 PZI       0.091000
      7 C07          5.6610    -0.7470    -0.2000 c3         1 PZI      -0.091400
      8 C08          5.7270     0.7400    -0.6210 c3         1 PZI      -0.156400
      9 C09          4.2890     1.1110    -0.9040 c          1 PZI       0.708500
     10 O10          3.8690     2.2450    -0.9960 o          1 PZI      -0.602500
     11 HN01        -0.3340     0.7730    -0.5410 hn         1 PZI       0.477800
     12 HN0A        -0.3340     0.0820     0.9400 hn         1 PZI       0.477800
     13 H04          1.8400     0.8850    -1.8730 h1         1 PZI       0.105200
     14 H04A         1.8410    -0.8840    -1.8730 h1         1 PZI       0.105200
     15 H06          3.8420    -1.9310    -0.2610 h1         1 PZI       0.056700
     16 H07          6.5130    -1.2950    -0.5850 hc         1 PZI       0.077200
     17 H08          6.3290     0.8530    -1.5140 hc         1 PZI       0.098700
     18 H08A         6.1200     1.3430     0.1880 hc         1 PZI       0.098700
     19 H06A         4.5760    -1.6370    -1.8570 h1         1 PZI       0.056700
     20 H07A         5.5840    -0.8400     0.8760 hc         1 PZI       0.077200
     21 H013        -0.3340    -0.8770    -0.3480 hn         1 PZI       0.477800
@<TRIPOS>BOND
     1     2     1 1
     2     1    11 1
     3     1    12 1
     4     4     2 1
     5     2     3 2
     6     4     5 1
     7     4    13 1
     8     4    14 1
     9     9     5 1
    10     5     6 1
    11     7     6 1
    12     6    15 1
    13     8     7 1
    14     7    16 1
    15     9     8 1
    16     8    17 1
    17    10     9 2
    18     8    18 1
    19     6    19 1
    20     7    20 1
    21    21     1 1
@<TRIPOS>SUBSTRUCTURE
     1 PZI         1 TEMP              0 ****  ****    0 ROOT
