@<TRIPOS>MOLECULE
PZL
   38    41     1     0     0
SMALL
bcc


@<TRIPOS>ATOM
      1 N19         -1.2850     0.0190    -2.2230 n1         1 PZL      -0.364800
      2 C16         -0.7180    -0.0000    -1.2390 cg         1 PZL       0.223800
      3 C13          0.0000     0.0000     0.0000 ca         1 PZL       0.064000
      4 C12          1.3960     0.0000     0.0000 ca         1 PZL      -0.116000
      5 C11          2.0860     0.0000     1.1980 ca         1 PZL       0.011400
      6 Cl15         3.8220     0.0000     1.1960 cl         1 PZL      -0.006400
      7 C10          1.3960     0.0010     2.3970 ca         1 PZL      -0.186000
      8 C14         -0.6930     0.0070     1.2120 ca         1 PZL      -0.110000
      9 C9           0.0080     0.0010     2.4060 ca         1 PZL       0.167100
     10 O8          -0.6640     0.0010     3.5880 os         1 PZL      -0.198200
     11 C3           0.0650     0.0020     4.7350 ca         1 PZL       0.094100
     12 C4           0.4370     1.2020     5.3220 ca         1 PZL       0.014100
     13 Br17        -0.0690     2.8410     4.5260 br         1 PZL      -0.078100
     14 C2           0.4330    -1.2010     5.3260 ca         1 PZL       0.098900
     15 F5           0.0680    -2.3730     4.7610 f          1 PZL      -0.115900
     16 C6           1.1730    -1.1970     6.4950 ca         1 PZL      -0.098300
     17 C7           1.5480     0.0020     7.0740 ca         1 PZL      -0.060000
     18 C1           1.1780     1.2000     6.4900 ca         1 PZL      -0.084000
     19 C18          1.5730    -2.5010     7.1370 c3         1 PZL       0.023600
     20 C26          2.8440    -3.0040     6.5030 cc         1 PZL       0.404900
     21 N27          4.0580    -2.7360     6.8940 nd         1 PZL      -0.620100
     22 N28          4.9840    -3.3800     6.0660 na         1 PZL       0.328200
     23 C24          4.3140    -4.0870     5.1060 ca         1 PZL       0.236800
     24 N20          4.6830    -4.8580     4.0930 nb         1 PZL      -0.286000
     25 C25          2.9360    -3.8830     5.3470 ca         1 PZL      -0.357200
     26 C23          2.0160    -4.5100     4.4980 ca         1 PZL      -0.102300
     27 C22          2.5150    -5.2880     3.4850 ca         1 PZL       0.323200
     28 N21          3.8210    -5.4180     3.3230 nb         1 PZL      -0.236000
     29 H12          1.6920     0.1630    -1.0290 ha         1 PZL       0.133000
     30 H10          2.0690    -0.1930     3.2240 ha         1 PZL       0.138000
     31 H14         -1.7700     0.1210     1.2420 ha         1 PZL       0.131000
     32 H7           2.3910     0.0870     7.7490 ha         1 PZL       0.128000
     33 H1           1.3270     2.1680     6.9520 ha         1 PZL       0.128000
     34 H18          1.0140    -3.3520     6.7680 hc         1 PZL       0.042200
     35 H18A         1.3000    -2.3790     8.1780 hc         1 PZL       0.042200
     36 HN28         5.9430    -3.1010     6.1190 hn         1 PZL       0.161700
     37 H23          1.0990    -4.7340     5.0300 ha         1 PZL       0.127000
     38 H22          1.7970    -5.8210     2.8740 h4         1 PZL      -0.001900
@<TRIPOS>BOND
     1     1     2 3   
     2     2     3 1   
     3     3     4 ar  
     4     3     8 ar  
     5     4     5 ar  
     6     4    29 1   
     7     5     6 1   
     8     5     7 ar  
     9     7     9 ar  
    10     7    30 1   
    11     8     9 ar  
    12     8    31 1   
    13     9    10 1   
    14    10    11 1   
    15    11    12 ar  
    16    11    14 ar  
    17    12    13 1   
    18    12    18 ar  
    19    14    15 1   
    20    14    16 ar  
    21    16    17 ar  
    22    16    19 1   
    23    17    18 ar  
    24    17    32 1   
    25    18    33 1   
    26    19    20 1   
    27    19    34 1   
    28    19    35 1   
    29    20    21 2   
    30    20    25 1   
    31    21    22 1   
    32    22    23 1   
    33    22    36 1   
    34    23    24 ar  
    35    23    25 ar  
    36    24    28 ar  
    37    25    26 ar  
    38    26    27 ar  
    39    26    37 1   
    40    27    28 ar  
    41    27    38 1   
@<TRIPOS>SUBSTRUCTURE
     1 PZL         1 TEMP              0 ****  ****    0 ROOT
