@<TRIPOS>MOLECULE
PZM
   22    22     1     0     0
SMALL
bcc


@<TRIPOS>ATOM
      1 N1           0.0000     0.0000     0.0000 nz         1 PZM       0.069400
      2 CB           1.4690     0.0000     0.0000 c3         1 PZM       0.048100
      3 CG           1.9720     0.0000     1.4200 ca         1 PZM      -0.269300
      4 CD1          2.2010    -1.1990     2.0710 ca         1 PZM      -0.020500
      5 CE1          2.6620    -1.2020     3.3730 ca         1 PZM      -0.168000
      6 CZ           2.8940    -0.0000     4.0280 ca         1 PZM       0.198100
      7 CE2          2.6570     1.2000     3.3760 ca         1 PZM      -0.168000
      8 CD2          2.2020     1.1980     2.0710 ca         1 PZM      -0.020500
      9 O1           3.3480    -0.0010     5.3090 os         1 PZM      -0.256900
     10 CF1          3.4850     1.3670     5.6990 c3         1 PZM       0.213700
     11 HN11        -0.3340    -0.8130     0.4780 hn         1 PZM       0.222133
     12 HN12        -0.3340    -0.0070    -0.9440 hn         1 PZM       0.222133
     13 HB1          1.8300    -0.8840    -0.5110 hx         1 PZM       0.079700
     14 HB2          1.8300     0.8840    -0.5110 hx         1 PZM       0.079700
     15 HD1          2.0200    -2.1360     1.5590 ha         1 PZM       0.106500
     16 HE1          2.8440    -2.1410     3.8820 ha         1 PZM       0.148000
     17 HE2          2.8370     2.1390     3.8850 ha         1 PZM       0.148000
     18 HD2          2.0160     2.1350     1.5610 ha         1 PZM       0.106500
     19 HF11         4.1890     1.8620     5.0410 h1         1 PZM       0.013367
     20 HF12         2.5220     1.8600     5.6340 h1         1 PZM       0.013367
     21 HF13         3.8480     1.4170     6.7190 h1         1 PZM       0.013367
     22 H13         -0.3340     0.8200     0.4670 hn         1 PZM       0.222133
@<TRIPOS>BOND
     1     1     2 1   
     2     1    11 1   
     3     1    12 1   
     4     1    22 1   
     5     2     3 1   
     6     2    13 1   
     7     2    14 1   
     8     3     4 ar  
     9     3     8 ar  
    10     4     5 ar  
    11     4    15 1   
    12     5     6 ar  
    13     5    16 1   
    14     6     7 ar  
    15     6     9 1   
    16     7     8 ar  
    17     7    17 1   
    18     8    18 1   
    19     9    10 1   
    20    10    19 1   
    21    10    20 1   
    22    10    21 1   
@<TRIPOS>SUBSTRUCTURE
     1 PZM         1 TEMP              0 ****  ****    0 ROOT
