@<TRIPOS>MOLECULE
PZN
   87    88     1     0     0
SMALL
bcc


@<TRIPOS>ATOM
      1 C1          0.8680    0.7280   -0.8320 c3        1 PZN     -0.096100
      2 C2          1.9210   -0.1130   -0.1570 c3        1 PZN     -0.079400
      3 C3          2.7370    0.7080    0.8210 c3        1 PZN     -0.080400
      4 C4          3.7920   -0.1440    1.4940 c3        1 PZN     -0.079400
      5 C5          4.6060    0.6870    2.4690 c3        1 PZN     -0.105400
      6 C6          5.6380   -0.2070    3.1460 c3        1 PZN      0.108800
      7 N1          6.5810    0.5490    4.0380 n4        1 PZN     -0.667400
      8 C7          5.8720    1.0870    5.2340 c3        1 PZN      0.065100
      9 C8          7.7200   -0.3350    4.4400 c3        1 PZN     -0.002200
     10 C9          8.8970    0.4640    4.9790 c         1 PZN      0.549100
     11 O1          9.1940    1.5460    4.4630 o         1 PZN     -0.499100
     12 C10         9.7230   -0.1100    6.1350 c3        1 PZN      0.074500
     13 N2         10.2500    1.0240    6.9730 n4        1 PZN     -0.691800
     14 C11         8.9160   -1.0680    7.0120 c3        1 PZN     -0.247400
     15 C12         7.6160   -0.3720    7.4570 c         1 PZN      0.899600
     16 O2          6.5230   -0.9220    7.1750 o         1 PZN     -0.805800
     17 O3          7.7260    0.7840    7.9780 o         1 PZN     -0.805800
     18 C13        11.3420    0.6380    7.9080 c         1 PZN      0.537100
     19 C14        11.5930    1.5610    9.1260 c3        1 PZN      0.057700
     20 O4         11.9780   -0.3820    7.6810 o         1 PZN     -0.434100
     21 C15        10.2690    2.0550    9.7300 c3        1 PZN     -0.120400
     22 C16        10.4620    2.4870   11.1610 c3        1 PZN     -0.099100
     23 N3         12.5480    2.6000    8.7890 n         1 PZN     -0.328000
     24 C18        13.2750    4.7180    7.7390 cc        1 PZN      0.599200
     25 N4         14.4020    4.7350    8.4400 nd        1 PZN     -0.592300
     26 C19        14.6570    3.6800    9.3080 cd        1 PZN      0.124400
     27 C24        13.7640    2.6430    9.4870 cc        1 PZN     -0.129400
     28 C17        12.2370    3.6200    7.8920 c         1 PZN      0.560200
     29 O5         11.1660    3.5980    7.2410 o         1 PZN     -0.698500
     30 C20        15.9770    3.7230   10.0620 c3        1 PZN      0.012200
     31 C23        16.1410    2.5150   10.9750 c3        1 PZN     -0.090767
     32 C21        17.1280    3.7340    9.0600 c3        1 PZN     -0.090767
     33 C22        16.0280    4.9870   10.9130 c3        1 PZN     -0.090767
     34 N5         12.9800    5.6590    6.7580 nh        1 PZN     -0.796200
     35 C25        13.7500    6.8780    6.6790 c3        1 PZN      0.184500
     36 C26        13.2900    7.8110    5.6150 cc        1 PZN      0.197300
     37 C27        14.1200    8.9090    5.0420 cc        1 PZN      0.246300
     38 N7         13.3360    9.5170    4.1350 nd        1 PZN     -0.326300
     39 O6         12.1610    8.8890    4.1300 os        1 PZN      0.128600
     40 N6         12.1010    7.8780    4.9930 nd        1 PZN     -0.345300
     41 C28        15.5050    9.2270    5.4200 c3        1 PZN     -0.140400
     42 H11         1.3360    1.5690   -1.3990 hc        1 PZN      0.041367
     43 H12         0.1650    1.1610   -0.0790 hc        1 PZN      0.041367
     44 H13         0.2790    0.1060   -1.5470 hc        1 PZN      0.041367
     45 H21         2.6010   -0.5580   -0.9310 hc        1 PZN      0.043700
     46 H22         1.4330   -0.9650    0.3850 hc        1 PZN      0.043700
     47 H31         3.2260    1.5600    0.2790 hc        1 PZN      0.048200
     48 H32         2.0580    1.1520    1.5950 hc        1 PZN      0.048200
     49 H41         3.3000   -0.9920    2.0390 hc        1 PZN      0.053700
     50 H42         4.4680   -0.5900    0.7170 hc        1 PZN      0.053700
     51 H51         3.9200    1.1410    3.2320 hc        1 PZN      0.067200
     52 H52         5.1090    1.5250    1.9170 hc        1 PZN      0.067200
     53 H61         6.2530   -0.7280    2.3560 hx        1 PZN      0.102700
     54 H62         5.1220   -0.9860    3.7780 hx        1 PZN      0.102700
     55 H71         5.1450    1.8710    4.8990 hx        1 PZN      0.123700
     56 H72         6.6200    1.5250    5.9540 hx        1 PZN      0.123700
     57 H73         5.3360    0.2540    5.7770 hx        1 PZN      0.123700
     58 H81         7.3120   -1.0790    5.1970 hx        1 PZN      0.151700
     59 H82         8.0880   -0.9020    3.5350 hx        1 PZN      0.151700
     60 H10        10.6100   -0.6540    5.6820 hx        1 PZN      0.127700
     61 HN2        10.5820    1.8000    6.3720 hn        1 PZN      0.509800
     62 H111        9.5050   -1.3660    7.9170 hc        1 PZN      0.089700
     63 H112        8.6960   -2.0050    6.4420 hc        1 PZN      0.089700
     64 H14        12.0810    0.8700    9.8890 h1        1 PZN      0.123700
     65 H151        9.5150    1.2190    9.6960 hc        1 PZN      0.090700
     66 H152        9.8540    2.9110    9.1300 hc        1 PZN      0.090700
     67 H161       11.1900    3.3300   11.2360 hc        1 PZN      0.054367
     68 H162        9.4820    2.8310   11.5780 hc        1 PZN      0.054367
     69 H163       10.8310    1.6410   11.7890 hc        1 PZN      0.054367
     70 H24        13.9500    1.8020   10.1750 h4        1 PZN      0.179000
     71 H231       17.1230    2.5850   11.5050 hc        1 PZN      0.045589
     72 H232       15.3340    2.4850   11.7460 hc        1 PZN      0.045589
     73 H233       16.1330    1.5660   10.3880 hc        1 PZN      0.045589
     74 H211       17.0630    2.8490    8.3830 hc        1 PZN      0.045589
     75 H212       17.1110    4.6630    8.4430 hc        1 PZN      0.045589
     76 H213       18.1000    3.6930    9.6090 hc        1 PZN      0.045589
     77 H221       15.1520    5.0290   11.6020 hc        1 PZN      0.045589
     78 H222       16.9630    4.9870   11.5240 hc        1 PZN      0.045589
     79 H223       16.0270    5.9000   10.2720 hc        1 PZN      0.045589
     80 HN5        12.0180    5.6980    6.4870 hn        1 PZN      0.458800
     81 H251       14.8280    6.6060    6.4630 h1        1 PZN      0.081200
     82 H252       13.7290    7.4390    7.6630 h1        1 PZN      0.081200
     83 H281       15.5340    9.5630    6.4870 hc        1 PZN      0.071033
     84 H282       15.9330   10.0380    4.7790 hc        1 PZN      0.071033
     85 H283       16.1420    8.3120    5.3140 hc        1 PZN      0.071033
     86 H113        6.9650    1.3460    3.5070 hn        1 PZN      0.448800
     87 H224        9.4260    1.3880    7.5440 hn        1 PZN      0.509800
@<TRIPOS>BOND
     1    1    2 1   
     2    1   42 1   
     3    1   43 1   
     4    1   44 1   
     5    2    3 1   
     6    2   45 1   
     7    2   46 1   
     8    3    4 1   
     9    3   47 1   
    10    3   48 1   
    11    4    5 1   
    12    4   49 1   
    13    4   50 1   
    14    5    6 1   
    15    5   51 1   
    16    5   52 1   
    17    6    7 1   
    18    6   53 1   
    19    6   54 1   
    20    7    8 1   
    21    7    9 1   
    22    7   86 1   
    23    8   55 1   
    24    8   56 1   
    25    8   57 1   
    26    9   10 1   
    27    9   58 1   
    28    9   59 1   
    29   10   11 2   
    30   10   12 1   
    31   12   13 1   
    32   12   14 1   
    33   12   60 1   
    34   13   18 1   
    35   13   61 1   
    36   13   87 1   
    37   14   15 1   
    38   14   62 1   
    39   14   63 1   
    40   15   16 1   
    41   15   17 1   
    42   18   19 1   
    43   18   20 2   
    44   19   21 1   
    45   19   23 1   
    46   19   64 1   
    47   21   22 1   
    48   21   65 1   
    49   21   66 1   
    50   22   67 1   
    51   22   68 1   
    52   22   69 1   
    53   23   27 1   
    54   23   28 1   
    55   24   25 2   
    56   24   28 1   
    57   24   34 1   
    58   25   26 1   
    59   26   27 2   
    60   26   30 1   
    61   27   70 1   
    62   28   29 2   
    63   30   31 1   
    64   30   32 1   
    65   30   33 1   
    66   31   71 1   
    67   31   72 1   
    68   31   73 1   
    69   32   74 1   
    70   32   75 1   
    71   32   76 1   
    72   33   77 1   
    73   33   78 1   
    74   33   79 1   
    75   34   35 1   
    76   34   80 1   
    77   35   36 1   
    78   35   81 1   
    79   35   82 1   
    80   36   37 1   
    81   36   40 2   
    82   37   38 2   
    83   37   41 1   
    84   38   39 1   
    85   39   40 1   
    86   41   83 1   
    87   41   84 1   
    88   41   85 1   
@<TRIPOS>SUBSTRUCTURE
     1 PZN         1 TEMP              0 ****  ****    0 ROOT
