@<TRIPOS>MOLECULE
molecule
    9     9     1     0     0
SMALL
bcc


@<TRIPOS>ATOM
      1 C5           0.0000     0.0000     0.0000 cc         1 PZO       0.333200
      2 C4           1.3980     0.0000     0.0000 cc         1 PZO      -0.353300
      3 C3           1.8140     0.0000     1.2870 cd         1 PZO      -0.117300
      4 N2           0.7180     0.0000     2.0730 na         1 PZO      -0.045600
      5 N1          -0.4090    -0.0040     1.2430 nd         1 PZO      -0.513800
      6 HC5         -0.6350    -0.0010    -0.8780 h4         1 PZO       0.048100
      7 HC4          2.0350     0.0010    -0.8760 ha         1 PZO       0.154000
      8 HC3          2.8430     0.0010     1.6260 h4         1 PZO       0.168000
      9 HN2          0.7120    -0.0010     3.0740 hn         1 PZO       0.327700
@<TRIPOS>BOND
     1     1     2 1
     2     1     5 2
     3     1     6 1
     4     2     3 2
     5     2     7 1
     6     3     4 1
     7     3     8 1
     8     4     5 1
     9     4     9 1
@<TRIPOS>SUBSTRUCTURE
     1 PZO         1 TEMP              0 ****  ****    0 ROOT
