@<TRIPOS>MOLECULE
molecule
   25    25     1     0     0
SMALL
bcc


@<TRIPOS>ATOM
      1 P            0.0000     0.0000     0.0000 p5         1 PZP       1.164900
      2 N1          -1.0980    -4.7840    -2.6800 nb         1 PZP      -0.696000
      3 C2          -2.2700    -5.2600    -3.0460 ca         1 PZP       0.342600
      4 C3          -3.4370    -4.5580    -2.7780 ca         1 PZP       0.003800
      5 O3          -4.6430    -5.0520    -3.1570 oh         1 PZP      -0.505100
      6 C4          -3.3490    -3.3280    -2.1060 ca         1 PZP      -0.174900
      7 C5          -2.0790    -2.8670    -1.7390 ca         1 PZP      -0.128600
      8 C6          -0.9740    -3.6320    -2.0480 ca         1 PZP       0.435200
      9 O1P          1.6100     0.0000     0.0000 o          1 PZP      -0.900833
     10 O2P         -0.5370     0.0000     1.5180 o          1 PZP      -0.900833
     11 O3P         -0.4940     1.2080    -0.6980 o          1 PZP      -0.900833
     12 N4A         -5.7240    -2.9850    -2.1470 n2         1 PZP      -0.821100
     13 O4P         -0.5380    -1.3150    -0.7590 os         1 PZP      -0.574200
     14 C5A         -1.9220    -1.5540    -1.0160 c3         1 PZP       0.246700
     15 HO3         -4.8110    -4.8170    -4.0540 ho         1 PZP       0.402000
     16 H6           0.0120    -3.2820    -1.7670 h4         1 PZP       0.085100
     17 H2A         -3.0190    -7.2430    -3.2350 hc         1 PZP       0.033700
     18 H2AA        -1.3580    -7.0270    -3.8040 hc         1 PZP       0.033700
     19 H2AB        -2.7110    -6.4240    -4.7730 hc         1 PZP       0.033700
     20 H4A         -4.4750    -1.5970    -1.2770 h4         1 PZP      -0.010200
     21 HN4A        -6.5460    -2.4530    -1.9370 hn         1 PZP       0.370400
     22 H5A         -2.4630    -1.5910    -0.0790 h1         1 PZP       0.035700
     23 H5AA        -2.3180    -0.7540    -1.6300 h1         1 PZP       0.035700
     24 C2A         -2.3450    -6.5810    -3.7650 c3         1 PZP      -0.125400
     25 C4A         -4.5610    -2.5430    -1.7970 ce         1 PZP       0.513800
@<TRIPOS>BOND
     1     1     9 1
     2     1    10 1
     3     1    11 1
     4     1    13 1
     5     2     3 ar
     6     2     8 ar
     7     3     4 ar
     8     3    24 1
     9     4     5 1
    10     4     6 ar
    11     6     7 ar
    12     6    25 1
    13     7     8 ar
    14     7    14 1
    15    25    12 2
    16    13    14 1
    17     5    15 1
    18     8    16 1
    19    24    17 1
    20    24    18 1
    21    24    19 1
    22    25    20 1
    23    12    21 1
    24    14    22 1
    25    14    23 1
@<TRIPOS>SUBSTRUCTURE
     1 PZP         1 TEMP              0 ****  ****    0 ROOT
