@<TRIPOS>MOLECULE
molecule
   47    50     1     0     0
SMALL
bcc


@<TRIPOS>ATOM
      1 C1           0.0000     0.0000     0.0000 c          1 PZQ       0.675100
      2 C2           3.5460     1.2500    -0.7230 c3         1 PZQ      -0.080400
      3 C3           2.0170     1.2490    -0.7210 c3         1 PZQ      -0.067400
      4 C4           1.5070     0.0000     0.0000 c3         1 PZQ      -0.144700
      5 C5           2.0190     0.0000     1.4410 c3         1 PZQ      -0.067400
      6 C6           3.5480     0.0000     1.4400 c3         1 PZQ      -0.080400
      7 C7          -3.8450     0.0990    -4.5760 ca         1 PZQ      -0.121000
      8 C8          -3.1020    -1.0490    -4.7590 ca         1 PZQ      -0.128000
      9 C9          -1.8480    -3.0240    -3.9400 c3         1 PZQ      -0.059100
     10 C10         -1.8510    -3.9620    -2.7340 c3         1 PZQ       0.093000
     11 C11         -2.9810    -1.3730    -2.3960 ca         1 PZQ      -0.101300
     12 C12         -2.6660    -1.7900    -3.6680 ca         1 PZQ      -0.070300
     13 C13          4.0570     1.2490     0.7200 c3         1 PZQ      -0.081400
     14 C14         -0.4240    -3.3650    -0.8690 c          1 PZQ       0.690500
     15 C15          0.0240    -2.4500     0.2420 c3         1 PZQ       0.027000
     16 C16         -2.1350    -1.2130    -0.0580 c3         1 PZQ       0.098000
     17 C17         -2.5560    -2.1450    -1.1760 c3         1 PZQ       0.140000
     18 C18         -3.7330    -0.2190    -2.2120 ca         1 PZQ      -0.121000
     19 C19         -4.1610     0.5170    -3.2970 ca         1 PZQ      -0.123000
     20 N1          -0.6730    -1.1650     0.0580 n          1 PZQ      -0.503800
     21 N2          -1.5660    -3.1470    -1.5330 n          1 PZQ      -0.473800
     22 O1          -0.6060     1.0490    -0.0510 o          1 PZQ      -0.602100
     23 H21          3.9050     2.1360    -1.2310 hc         1 PZQ       0.043200
     24 H22          3.9050     0.3640    -1.2330 hc         1 PZQ       0.043200
     25 H31          1.6580     2.1330    -0.2060 hc         1 PZQ       0.052950
     26 H32          1.6550     1.2480    -1.7420 hc         1 PZQ       0.052950
     27 H4           1.8720    -0.8830    -0.5110 hc         1 PZQ       0.063700
     28 H51          1.6600    -0.8860     1.9500 hc         1 PZQ       0.052950
     29 H52          1.6600     0.8860     1.9500 hc         1 PZQ       0.052950
     30 H61          3.9070    -0.8830     0.9250 hc         1 PZQ       0.043200
     31 H62          3.9080     0.0010     2.4610 hc         1 PZQ       0.043200
     32 H7          -4.1790     0.6720    -5.4320 ha         1 PZQ       0.132000
     33 H8          -2.8560    -1.3750    -5.7620 ha         1 PZQ       0.132000
     34 H91         -2.3700    -3.5550    -4.7270 hc         1 PZQ       0.071700
     35 H92         -0.8250    -2.6830    -4.0450 hc         1 PZQ       0.071700
     36 H101        -1.0670    -4.7000    -2.8560 h1         1 PZQ       0.071700
     37 H102        -2.8320    -4.4110    -2.6340 h1         1 PZQ       0.071700
     38 H131         3.6940     2.1320     1.2310 hc         1 PZQ       0.043700
     39 H132         5.1410     1.2460     0.7180 hc         1 PZQ       0.043700
     40 H151         1.0950    -2.2980     0.1830 h1         1 PZQ       0.083700
     41 H152        -0.2410    -2.8790     1.2010 h1         1 PZQ       0.083700
     42 H161        -2.4390    -0.2210    -0.3700 h1         1 PZQ       0.085700
     43 H162        -2.4900    -1.6710     0.8570 h1         1 PZQ       0.085700
     44 H17         -3.4290    -2.6800    -0.8230 h1         1 PZQ       0.056700
     45 H18         -3.9800     0.1080    -1.2090 ha         1 PZQ       0.134000
     46 H19         -4.7440     1.4170    -3.1480 ha         1 PZQ       0.134000
     47 O2           0.2650    -4.3160    -1.1700 o          1 PZQ      -0.649500
@<TRIPOS>BOND
     1     1     4 1
     2     1    20 1
     3     1    22 2
     4     2     3 1
     5     2    13 1
     6     2    23 1
     7     2    24 1
     8     3     4 1
     9     3    25 1
    10     3    26 1
    11     4     5 1
    12     4    27 1
    13     5     6 1
    14     5    28 1
    15     5    29 1
    16     6    13 1
    17     6    30 1
    18     6    31 1
    19     7     8 ar
    20     7    19 ar
    21     7    32 1
    22     8    12 ar
    23     8    33 1
    24     9    10 1
    25     9    12 1
    26     9    34 1
    27     9    35 1
    28    10    21 1
    29    10    36 1
    30    10    37 1
    31    11    12 ar
    32    11    17 1
    33    11    18 ar
    34    13    38 1
    35    13    39 1
    36    14    15 1
    37    14    21 1
    38    14    47 2
    39    15    20 1
    40    15    40 1
    41    15    41 1
    42    16    17 1
    43    16    20 1
    44    16    42 1
    45    16    43 1
    46    17    21 1
    47    17    44 1
    48    18    19 ar
    49    18    45 1
    50    19    46 1
@<TRIPOS>SUBSTRUCTURE
     1 PZQ         1 TEMP              0 ****  ****    0 ROOT
