@<TRIPOS>MOLECULE
molecule
   14    15     1     0     0
SMALL
bcc


@<TRIPOS>ATOM
      1 C1           0.0000     0.0000     0.0000 cc         1 PZR       0.391800
      2 N1           0.7070    -0.0000    -2.0990 na         1 PZR      -0.047100
      3 C2           1.4580     0.0000     0.0000 ca         1 PZR      -0.385200
      4 N2          -0.3970     0.0000    -1.2410 nd         1 PZR      -0.497100
      5 C3           2.4440     0.0000     0.9880 ca         1 PZR       0.497200
      6 N3           3.7160    -0.0000     0.6480 nb         1 PZR      -0.722000
      7 C4           4.1120    -0.0000    -0.6140 ca         1 PZR       0.454200
      8 C5           3.2160    -0.0000    -1.6460 ca         1 PZR      -0.284300
      9 C6           1.8520    -0.0000    -1.3560 ca         1 PZR       0.003800
     10 H1          -0.6390     0.0000     0.8750 h4         1 PZR       0.065800
     11 HN1          0.6650    -0.0000    -3.0990 hn         1 PZR       0.334700
     12 H3           2.1630     0.0000     2.0340 h4         1 PZR       0.026100
     13 H4           5.1720    -0.0000    -0.8350 h4         1 PZR       0.025100
     14 H5           3.5600    -0.0000    -2.6730 ha         1 PZR       0.138000
@<TRIPOS>BOND
     1     1     3 1
     2     1     4 2
     3     2     4 1
     4     2     9 1
     5     3     5 ar
     6     3     9 ar
     7     5     6 ar
     8     6     7 ar
     9     7     8 ar
    10     8     9 ar
    11     1    10 1
    12     2    11 1
    13     5    12 1
    14     7    13 1
    15     8    14 1
@<TRIPOS>SUBSTRUCTURE
     1 PZR         1 TEMP              0 ****  ****    0 ROOT
