@<TRIPOS>MOLECULE
PZR
   14    15     1     0     0
SMALL
bcc


@<TRIPOS>ATOM
      1 C1          0.0050    0.0000   -0.0180 cc        1 PZR      0.363800
      2 N1          0.6740   -0.0000   -2.0970 na        1 PZR     -0.022100
      3 C2          1.4570    0.0000    0.0370 ca        1 PZR     -0.340200
      4 N2         -0.4060   -0.0000   -1.3020 nd        1 PZR     -0.508100
      5 C3          2.4620    0.0000    1.0170 ca        1 PZR      0.470200
      6 N3          3.7620    0.0000    0.7000 nb        1 PZR     -0.689000
      7 C4          4.1140   -0.0000   -0.6130 ca        1 PZR      0.417200
      8 C5          3.2230   -0.0000   -1.6900 ca        1 PZR     -0.257300
      9 C6          1.8600   -0.0000   -1.3570 ca        1 PZR     -0.024200
     10 H1         -0.6920    0.0000    0.8210 h4        1 PZR      0.058800
     11 HN1         0.5780    0.0000   -3.0840 hn        1 PZR      0.328700
     12 H3          2.2140    0.0000    2.0940 h4        1 PZR      0.028100
     13 H4          5.2050   -0.0000   -0.7970 h4        1 PZR      0.024100
     14 H5          3.5740   -0.0000   -2.7280 ha        1 PZR      0.149000
@<TRIPOS>BOND
     1    1    3 1   
     2    1    4 2   
     3    1   10 1   
     4    2    4 1   
     5    2    9 1   
     6    2   11 1   
     7    3    5 ar  
     8    3    9 ar  
     9    5    6 ar  
    10    5   12 1   
    11    6    7 ar  
    12    7    8 ar  
    13    7   13 1   
    14    8    9 ar  
    15    8   14 1   
@<TRIPOS>SUBSTRUCTURE
     1 PZR         1 TEMP              0 ****  ****    0 ROOT
