@<TRIPOS>MOLECULE
PZS
   54    58     1     0     0
SMALL
bcc


@<TRIPOS>ATOM
      1 C10          0.0000     0.0000     0.0000 c3         1 PZS      -0.139000
      2 C14          1.5300     0.0000     0.0000 c3         1 PZS      -0.103000
      3 C15          2.0420     0.0000     1.4420 c3         1 PZS      -0.111000
      4 C9          -0.5100     0.0000    -1.4420 DU         1 PZS      -0.031000
      5 C8          -2.0170    -0.0010    -1.4420 c2         1 PZS      -0.086000
      6 C7          -2.6840     0.9440    -2.1030 c2         1 PZS       0.003000
      7 C           -4.1460     0.8810    -2.1960 c3         1 PZS       0.201000
      8 O           -4.9060    -0.0330    -1.5590 os         1 PZS      -0.148000
      9 C3          -6.2680     0.2150    -1.8860 c3         1 PZS      -0.055000
     10 C2          -6.2620     1.4040    -2.8090 c2         1 PZS       0.343000
     11 O1          -7.2200     1.9480    -3.3250 o          1 PZS      -0.289000
     12 C1          -4.9090     1.7510    -2.9390 c2         1 PZS      -0.421000
     13 C11         -4.3740     2.8920    -3.7650 c3         1 PZS       0.007000
     14 C6          -6.9200    -0.9800    -2.5260 c2         1 PZS       0.263000
     15 O2          -6.7300    -1.3510    -3.6650 o          1 PZS      -0.347000
     16 N           -7.7480    -1.5750    -1.6460 ns         1 PZS      -0.003000
     17 C5          -7.7320    -0.8850    -0.3490 c3         1 PZS       0.051000
     18 C4          -7.1030     0.5000    -0.6260 c3         1 PZS       0.075000
     19 O3          -8.1120     1.4770    -0.8910 oh         1 PZS      -0.249000
     20 O11         -9.0620    -0.7350     0.1480 os         1 PZS      -0.230000
     21 C31         -9.7400    -1.9710     0.3790 c3         1 PZS       0.039000
     22 C12         -6.8910    -1.6530     0.6390 c2         1 PZS       0.280000
     23 O4          -6.4190    -2.7270     0.3290 o          1 PZS      -0.292000
     24 C13         -6.6420    -1.0990     1.9790 ca         1 PZS      -0.172000
     25 C28         -5.7650    -1.7470     2.8550 ca         1 PZS      -0.052000
     26 C27         -5.5380    -1.2220     4.1100 ca         1 PZS      -0.117500
     27 C26         -6.1740    -0.0580     4.5040 ca         1 PZS      -0.064000
     28 C25         -7.0440     0.5890     3.6420 ca         1 PZS      -0.117500
     29 C24         -7.2770     0.0790     2.3820 ca         1 PZS      -0.052000
     30 H6          -0.3610    -0.8850     0.5110 hc         1 PZS       0.065000
     31 H16         -0.3610     0.8840     0.5110 hc         1 PZS       0.065000
     32 H12          1.8910     0.8840    -0.5110 hc         1 PZS       0.055500
     33 H11          1.8910    -0.8840    -0.5110 hc         1 PZS       0.055500
     34 H13          3.1250     0.0000     1.4400 hc         1 PZS       0.042333
     35 H15          1.6810     0.8840     1.9530 hc         1 PZS       0.042333
     36 H14          1.6810    -0.8850     1.9530 hc         1 PZS       0.042333
     37 H4          -0.1500     0.8850    -1.9520 ha         1 PZS       0.074000
     38 H5          -0.1490    -0.8840    -1.9520 ha         1 PZS       0.074000
     39 H3          -1.4420     0.6220    -0.7670 DU         1 PZS       0.074000
     40 H2          -3.3270     1.3020    -1.3090 DU         1 PZS       0.021000
     41 H9          -3.6060     2.5250    -4.4350 hc         1 PZS       0.042000
     42 H7          -5.1800     3.3280    -4.3430 hc         1 PZS       0.042000
     43 H8          -3.9520     3.6450    -3.1100 hc         1 PZS       0.042000
     44 H1          -8.1990    -2.4510    -1.8220 hn         1 PZS       0.122000
     45 H           -6.4660     0.8040     0.1960 h1         1 PZS       0.078000
     46 H10         -7.9890     2.2180    -0.3210 ho         1 PZS       0.192000
     47 H38        -10.3380    -1.8930     1.2790 h1         1 PZS       0.039667
     48 H39        -10.3840    -2.1930    -0.4630 h1         1 PZS       0.039667
     49 H37         -9.0130    -2.7660     0.4970 h1         1 PZS       0.039667
     50 H32         -5.2650    -2.6580     2.5490 ha         1 PZS       0.125000
     51 H31         -4.8580    -1.7220     4.7900 ha         1 PZS       0.109000
     52 H30         -5.9930     0.3480     5.4920 ha         1 PZS       0.104000
     53 H29         -7.5370     1.5000     3.9560 ha         1 PZS       0.109000
     54 H28         -7.9580     0.5860     1.7100 ha         1 PZS       0.125000
@<TRIPOS>BOND
     1     1     2 1   
     2     1     4 1   
     3     1    30 1   
     4     1    31 1   
     5     2     3 1   
     6     2    32 1   
     7     2    33 1   
     8     3    34 1   
     9     3    35 1   
    10     3    36 1   
    11     4     5 1   
    12     4    37 1   
    13     4    38 1   
    14     4    39 1   
    15     5     6 1   
    16     5    39 1   
    17     6     7 1   
    18     6    40 1   
    19     7     8 1   
    20     7    12 1   
    21     7    40 1   
    22     8     9 1   
    23     9    10 1   
    24     9    14 1   
    25     9    18 1   
    26    10    11 1   
    27    10    12 1   
    28    12    13 1   
    29    13    41 1   
    30    13    42 1   
    31    13    43 1   
    32    14    15 1   
    33    14    16 1   
    34    16    17 1   
    35    16    44 1   
    36    17    18 1   
    37    17    20 1   
    38    17    22 1   
    39    18    19 1   
    40    18    45 1   
    41    19    46 1   
    42    20    21 1   
    43    21    47 1   
    44    21    48 1   
    45    21    49 1   
    46    22    23 1   
    47    22    24 1   
    48    24    25 1   
    49    24    29 1   
    50    25    26 1   
    51    25    50 1   
    52    26    27 1   
    53    26    51 1   
    54    27    28 1   
    55    27    52 1   
    56    28    29 1   
    57    28    53 1   
    58    29    54 1   
@<TRIPOS>SUBSTRUCTURE
     1 PZS         1 TEMP              0 ****  ****    0 ROOT
