@<TRIPOS>MOLECULE
molecule
   54    56     1     0     0
SMALL
bcc


@<TRIPOS>ATOM
      1 C10          0.0000     0.0000     0.0000 c3         1 PZS      -0.078400
      2 C14          1.5300     0.0000     0.0000 c3         1 PZS      -0.084400
      3 C15          2.0420     0.0000     1.4420 c3         1 PZS      -0.091100
      4 C9          -0.5100     0.0000    -1.4420 c3         1 PZS      -0.058200
      5 C8          -2.0170    -0.0010    -1.4420 c2         1 PZS      -0.105200
      6 C7          -2.6840     0.9440    -2.1030 ce         1 PZS      -0.152000
      7 C           -4.1460     0.8810    -2.1960 ce         1 PZS       0.178100
      8 O           -4.9060    -0.0330    -1.5590 os         1 PZS      -0.270900
      9 C3          -6.2680     0.2150    -1.8860 c3         1 PZS      -0.092200
     10 C2          -6.2620     1.4040    -2.8090 c          1 PZS       0.592300
     11 O1          -7.2200     1.9480    -3.3250 o          1 PZS      -0.474100
     12 C1          -4.9090     1.7510    -2.9390 cf         1 PZS      -0.332400
     13 C11         -4.3740     2.8920    -3.7650 c3         1 PZS      -0.006900
     14 C6          -6.9200    -0.9800    -2.5260 c          1 PZS       0.740500
     15 O2          -6.7300    -1.3510    -3.6650 o          1 PZS      -0.584500
     16 N           -7.7480    -1.5750    -1.6460 ns         1 PZS      -0.575900
     17 C5          -7.7320    -0.8850    -0.3490 c3         1 PZS       0.214200
     18 C4          -7.1030     0.5000    -0.6260 c3         1 PZS       0.163100
     19 O3          -8.1120     1.4770    -0.8910 oh         1 PZS      -0.542800
     20 O11         -9.0620    -0.7350     0.1480 os         1 PZS      -0.387600
     21 C31         -9.7400    -1.9710     0.3790 c3         1 PZS       0.113700
     22 C12         -6.8910    -1.6530     0.6390 c          1 PZS       0.544700
     23 O4          -6.4190    -2.7270     0.3290 o          1 PZS      -0.498100
     24 C13         -6.6420    -1.0990     1.9790 ca         1 PZS      -0.183600
     25 C28         -5.7650    -1.7470     2.8550 ca         1 PZS      -0.078000
     26 C27         -5.5380    -1.2220     4.1100 ca         1 PZS      -0.143500
     27 C26         -6.1740    -0.0580     4.5040 ca         1 PZS      -0.093000
     28 C25         -7.0440     0.5890     3.6420 ca         1 PZS      -0.143500
     29 C24         -7.2770     0.0790     2.3820 ca         1 PZS      -0.078000
     30 H6          -0.3610    -0.8850     0.5110 hc         1 PZS       0.045700
     31 H16         -0.3610     0.8840     0.5110 hc         1 PZS       0.045700
     32 H12          1.8910    -0.8840    -0.5110 hc         1 PZS       0.041700
     33 H11          1.8910     0.8840    -0.5110 hc         1 PZS       0.041700
     34 H13          1.6530    -0.8660     1.9630 hc         1 PZS       0.034367
     35 H15          1.7100     0.9020     1.9420 hc         1 PZS       0.034367
     36 H14          3.1240    -0.0350     1.4410 hc         1 PZS       0.034367
     37 H4          -0.1500     0.8850    -1.9520 hc         1 PZS       0.055200
     38 H5          -0.1490    -0.8840    -1.9530 hc         1 PZS       0.055200
     39 H3          -2.5570    -0.8150    -0.9730 ha         1 PZS       0.144000
     40 H2          -2.1410     1.7130    -2.6410 ha         1 PZS       0.156000
     41 H9          -3.7000     2.5070    -4.5200 hc         1 PZS       0.045033
     42 H7          -5.1980     3.4080    -4.2440 hc         1 PZS       0.045033
     43 H8          -3.8400     3.5830    -3.1230 hc         1 PZS       0.045033
     44 H1          -8.1990    -2.4510    -1.8220 hn         1 PZS       0.352500
     45 H           -6.4660     0.8040     0.1960 h1         1 PZS       0.077700
     46 H10         -8.0310     2.1870    -0.2750 ho         1 PZS       0.411000
     47 H38        -10.3260    -2.2310    -0.4950 h1         1 PZS       0.042700
     48 H39         -9.0130    -2.7510     0.5710 h1         1 PZS       0.042700
     49 H37        -10.3950    -1.8690     1.2360 h1         1 PZS       0.042700
     50 H32         -5.2650    -2.6580     2.5490 ha         1 PZS       0.150500
     51 H31         -4.8580    -1.7220     4.7900 ha         1 PZS       0.137500
     52 H30         -5.9930     0.3480     5.4920 ha         1 PZS       0.135000
     53 H29         -7.5370     1.5000     3.9560 ha         1 PZS       0.137500
     54 H28         -7.9580     0.5860     1.7100 ha         1 PZS       0.150500
@<TRIPOS>BOND
     1    28    27 ar
     2    28    29 ar
     3    27    26 ar
     4    29    24 ar
     5     3     2 1
     6    23    22 2
     7    26    25 ar
     8    24    22 1
     9    24    25 ar
    10    22    17 1
    11     2     1 1
    12    18    19 1
    13    18    17 1
    14    18     9 1
    15     1     4 1
    16    17    20 1
    17    17    16 1
    18     8     9 1
    19     8     7 1
    20     5     4 1
    21     5     6 2
    22    20    21 1
    23     9    14 1
    24     9    10 1
    25    16    14 1
    26    14    15 2
    27     7     6 1
    28     7    12 2
    29    10    12 1
    30    10    11 2
    31    12    13 1
    32     1    30 1
    33     1    31 1
    34     2    32 1
    35     2    33 1
    36     3    34 1
    37     3    35 1
    38     3    36 1
    39     4    37 1
    40     4    38 1
    41     5    39 1
    42     6    40 1
    43    13    41 1
    44    13    42 1
    45    13    43 1
    46    16    44 1
    47    18    45 1
    48    19    46 1
    49    21    47 1
    50    21    48 1
    51    21    49 1
    52    25    50 1
    53    26    51 1
    54    27    52 1
    55    28    53 1
    56    29    54 1
@<TRIPOS>SUBSTRUCTURE
     1 PZS         1 TEMP              0 ****  ****    0 ROOT
