@<TRIPOS>MOLECULE
molecule
   22    22     1     0     0
SMALL
bcc


@<TRIPOS>ATOM
      1 C1           0.0000     0.0000     0.0000 c3         1 PZU       0.332900
      2 C2           1.5300     0.0000     0.0000 c3         1 PZU       0.123100
      3 O2           2.0080    -1.1680    -0.6720 oh         1 PZU      -0.589800
      4 C3           2.0340     0.0000     1.4470 c3         1 PZU      -0.120400
      5 C4           1.4520     1.2140     2.1770 c3         1 PZU       0.119100
      6 O4           1.8570     1.1850     3.5480 oh         1 PZU      -0.597800
      7 C5          -0.0750     1.1680     2.0930 c3         1 PZU       0.147100
      8 O5          -0.4750     1.1380     0.7220 os         1 PZU      -0.428600
      9 C6          -0.6620     2.4080     2.7700 c3         1 PZU      -0.083100
     10 H1          -0.3590     0.0470    -1.0210 h2         1 PZU       0.067700
     11 O1          -0.4760    -1.1940     0.6250 oh         1 PZU      -0.606800
     12 H2           1.8900     0.8870    -0.5070 h1         1 PZU       0.041700
     13 HO2          2.5870    -0.9130    -1.3710 ho         1 PZU       0.400000
     14 H3           1.7120    -0.9080     1.9420 hc         1 PZU       0.068200
     15 H3A          3.1160     0.0590     1.4520 hc         1 PZU       0.068200
     16 H4           1.8110     2.1220     1.7080 h1         1 PZU       0.033700
     17 HO4          2.6850     1.6280     3.6400 ho         1 PZU       0.403000
     18 H5          -0.4350     0.2750     2.5910 h1         1 PZU       0.071700
     19 H6          -0.4480     2.3760     3.8310 hc         1 PZU       0.046367
     20 H6A         -1.7350     2.4290     2.6180 hc         1 PZU       0.046367
     21 H6B         -0.2200     3.2980     2.3380 hc         1 PZU       0.046367
     22 HO1         -1.1710    -1.5650     0.1070 ho         1 PZU       0.411000
@<TRIPOS>BOND
     1     1     2 1
     2     1     8 1
     3     1    10 1
     4     1    11 1
     5     2     3 1
     6     2     4 1
     7     2    12 1
     8     3    13 1
     9     4     5 1
    10     4    14 1
    11     4    15 1
    12     5     6 1
    13     5     7 1
    14     5    16 1
    15     6    17 1
    16     7     8 1
    17     7     9 1
    18     7    18 1
    19     9    19 1
    20     9    20 1
    21     9    21 1
    22    11    22 1
@<TRIPOS>SUBSTRUCTURE
     1 PZU         1 TEMP              0 ****  ****    0 ROOT
