@<TRIPOS>MOLECULE
PZU
   22    22     1     0     0
SMALL
bcc


@<TRIPOS>ATOM
      1 C1          0.1130    0.1450   -0.1040 c3        1 PZU      0.297900
      2 C2          1.6550    0.1590   -0.0860 c3        1 PZU      0.139100
      3 O2          2.1640   -0.9470   -0.7990 oh        1 PZU     -0.588800
      4 C3          2.1770    0.1930    1.3430 c3        1 PZU     -0.151400
      5 C4          1.5020    1.3160    2.1210 c3        1 PZU      0.116100
      6 O4          1.8730    1.2810    3.4920 oh        1 PZU     -0.593800
      7 C5         -0.0270    1.1410    2.0790 c3        1 PZU      0.148100
      8 O5         -0.4830    1.1220    0.7200 os        1 PZU     -0.446600
      9 C6         -0.7400    2.2990    2.7470 c3        1 PZU     -0.089100
     10 H1         -0.2880    0.3540   -1.1360 h2        1 PZU      0.081700
     11 O1         -0.3150   -1.1090    0.3780 oh        1 PZU     -0.636800
     12 H2          2.0110    1.0600   -0.6600 h1        1 PZU      0.085700
     13 HO2         1.8110   -1.7460   -0.3840 ho        1 PZU      0.419000
     14 H3          1.9620   -0.7880    1.8430 hc        1 PZU      0.064700
     15 H3A         3.2870    0.3370    1.3330 hc        1 PZU      0.064700
     16 H4          1.7820    2.3140    1.6820 h1        1 PZU      0.045700
     17 HO4         2.8370    1.2970    3.5180 ho        1 PZU      0.405000
     18 H5         -0.2980    0.1640    2.5660 h1        1 PZU      0.062700
     19 H6         -0.3620    2.3940    3.7930 hc        1 PZU      0.050700
     20 H6A        -1.8400    2.1150    2.7610 hc        1 PZU      0.050700
     21 H6B        -0.5450    3.2490    2.1960 hc        1 PZU      0.050700
     22 HO1        -1.2790   -1.0960    0.4050 ho        1 PZU      0.424000
@<TRIPOS>BOND
     1    1    2 1   
     2    1    8 1   
     3    1   10 1   
     4    1   11 1   
     5    2    3 1   
     6    2    4 1   
     7    2   12 1   
     8    3   13 1   
     9    4    5 1   
    10    4   14 1   
    11    4   15 1   
    12    5    6 1   
    13    5    7 1   
    14    5   16 1   
    15    6   17 1   
    16    7    8 1   
    17    7    9 1   
    18    7   18 1   
    19    9   19 1   
    20    9   20 1   
    21    9   21 1   
    22   11   22 1   
@<TRIPOS>SUBSTRUCTURE
     1 PZU         1 TEMP              0 ****  ****    0 ROOT
