@<TRIPOS>MOLECULE
PZW
   41    44     1     0     0
SMALL
bcc


@<TRIPOS>ATOM
      1 C1           0.0000     0.0000     0.0000 c3         1 PZW       0.072200
      2 C2           1.5070     0.0000     0.0000 ca         1 PZW      -0.159300
      3 C3           2.1950     0.0000     1.1980 ca         1 PZW      -0.054000
      4 C4           3.5830    -0.0040     1.2070 ca         1 PZW       0.061100
      5 O5           4.2370     0.0110     2.3950 os         1 PZW      -0.303900
      6 C6           5.6010    -0.3780     2.4720 c3         1 PZW       0.209100
      7 C7           6.3400     0.0040     1.2160 c2         1 PZW       0.405200
      8 N8           7.5770     0.3680     1.2790 n2         1 PZW      -0.613300
      9 N9           8.2720     0.7820     0.1390 ns         1 PZW       0.077100
     10 C10          7.7300     0.6500    -1.0880 c          1 PZW       0.574500
     11 O11          8.2900     1.1210    -2.0560 o          1 PZW      -0.660500
     12 C12          6.4250    -0.0870    -1.2520 c3         1 PZW       0.059500
     13 C13          6.7040    -1.5470    -1.6170 c3         1 PZW      -0.011100
     14 N14          5.6770    -0.0330     0.0040 nh         1 PZW      -0.255000
     15 C15          4.2770    -0.0120    -0.0000 ca         1 PZW      -0.003400
     16 C16          3.5870    -0.0060    -1.2030 ca         1 PZW      -0.221000
     17 C17          2.1990    -0.0070    -1.2040 ca         1 PZW       0.072600
     18 N18          1.4980    -0.0080    -2.4160 nu         1 PZW      -0.388600
     19 C19          2.2300    -0.0140    -3.6850 cy         1 PZW       0.098500
     20 C20          2.1530    -1.3550    -4.4380 cy         1 PZW       0.108300
     21 N21          0.9540    -0.7980    -5.1040 n6         1 PZW      -0.581200
     22 C22          1.4360     0.5800    -4.8610 cy         1 PZW       0.108300
     23 H1          -0.3610    -0.8930    -0.4960 hc         1 PZW       0.007367
     24 H2          -0.3610     0.8760    -0.5250 hc         1 PZW       0.007367
     25 H3          -0.3610     0.0160     1.0210 hc         1 PZW       0.007367
     26 H4           1.6490     0.0030     2.1340 ha         1 PZW       0.118000
     27 H5           6.0580     0.1350     3.3090 h1         1 PZW       0.032700
     28 H6           5.6460    -1.4540     2.5830 h1         1 PZW       0.032700
     29 H7           9.1850     1.1820     0.2360 hn         1 PZW       0.208500
     30 H8           5.8430     0.3810    -2.0370 h1         1 PZW       0.072700
     31 H9           6.8940    -1.6230    -2.6810 hc         1 PZW       0.019033
     32 H10          5.8440    -2.1540    -1.3600 hc         1 PZW       0.019033
     33 H11          7.5700    -1.8970    -1.0690 hc         1 PZW       0.019033
     34 H12          4.1310    -0.0110    -2.1400 ha         1 PZW       0.132000
     35 H13          0.4980     0.0300    -2.4150 hn         1 PZW       0.308800
     36 H14          3.2390     0.3740    -3.6210 h1         1 PZW       0.047700
     37 H15          1.9290    -2.1950    -3.7910 h1         1 PZW       0.030700
     38 H16          2.9830    -1.5110    -5.1160 h1         1 PZW       0.030700
     39 H17          0.9930    -0.9980    -6.0840 hn         1 PZW       0.248800
     40 H19          0.6500     1.2560    -4.5470 h1         1 PZW       0.030700
     41 H20          2.0690     0.9550    -5.6560 h1         1 PZW       0.030700
@<TRIPOS>BOND
     1     1     2 1   
     2     1    23 1   
     3     1    24 1   
     4     1    25 1   
     5     2     3 ar  
     6     2    17 ar  
     7     3     4 ar  
     8     3    26 1   
     9     4     5 1   
    10     4    15 ar  
    11     5     6 1   
    12     6     7 1   
    13     6    27 1   
    14     6    28 1   
    15     7     8 2   
    16     7    14 1   
    17     8     9 1   
    18     9    10 1   
    19     9    29 1   
    20    10    11 2   
    21    10    12 1   
    22    12    13 1   
    23    12    14 1   
    24    12    30 1   
    25    13    31 1   
    26    13    32 1   
    27    13    33 1   
    28    14    15 1   
    29    15    16 ar  
    30    16    17 ar  
    31    16    34 1   
    32    17    18 1   
    33    18    19 1   
    34    18    35 1   
    35    19    20 1   
    36    19    22 1   
    37    19    36 1   
    38    20    21 1   
    39    20    37 1   
    40    20    38 1   
    41    21    22 1   
    42    21    39 1   
    43    22    40 1   
    44    22    41 1   
@<TRIPOS>SUBSTRUCTURE
     1 PZW         1 TEMP              0 ****  ****    0 ROOT
