@<TRIPOS>MOLECULE
PZX
   27    28     1     0     0
SMALL
bcc


@<TRIPOS>ATOM
      1 C7          0.0840   -0.5650   -0.0070 c3        1 PZX     -0.036800
      2 C16         1.5460   -0.4530    0.0960 cc        1 PZX     -0.111600
      3 C6          2.3400    0.0860    1.1190 cd        1 PZX     -0.229300
      4 N8          2.4460   -0.9030   -0.8910 na        1 PZX     -0.003600
      5 N12         3.7110   -0.6910   -0.5720 nc        1 PZX     -0.446800
      6 C9          3.7040   -0.0840    0.6580 cd        1 PZX      0.255800
      7 C10         4.8670    0.3460    1.4270 c         1 PZX      0.578600
      8 O14         4.8600    0.8680    2.5450 o         1 PZX     -0.542000
      9 O13         6.0740    0.1340    0.8170 os        1 PZX     -0.420900
     10 C5          7.2340    0.5520    1.5620 c3        1 PZX      0.188700
     11 C11         8.4400    0.2820    0.7350 ca        1 PZX     -0.208600
     12 C3          8.4090   -0.4770   -0.4390 ca        1 PZX     -0.068000
     13 C2          9.6000   -0.6860   -1.1380 ca        1 PZX     -0.248300
     14 C1         10.7850   -0.1240   -0.6320 ca        1 PZX      0.391200
     15 N15        10.8350    0.6120    0.4970 nb        1 PZX     -0.664000
     16 C4          9.6810    0.8070    1.1590 ca        1 PZX      0.396200
     17 H1         -0.2310   -1.6350   -0.0960 hc        1 PZX      0.058367
     18 H2         -0.2990   -0.0070   -0.8980 hc        1 PZX      0.058367
     19 H3         -0.3850   -0.1320    0.9120 hc        1 PZX      0.058367
     20 H4          2.0330    0.5360    2.0570 ha        1 PZX      0.185000
     21 H5          2.2110   -1.3380   -1.7530 hn        1 PZX      0.326700
     22 H6          7.2660   -0.0290    2.5240 h1        1 PZX      0.065700
     23 H7          7.1360    1.6460    1.7980 h1        1 PZX      0.065700
     24 H8          7.4580   -0.8970   -0.8020 ha        1 PZX      0.161000
     25 H9          9.6140   -1.2750   -2.0630 ha        1 PZX      0.144000
     26 H10        11.7480   -0.2650   -1.1540 h4        1 PZX      0.021100
     27 H11         9.7500    1.4150    2.0790 h4        1 PZX      0.022100
@<TRIPOS>BOND
     1    1    2 1   
     2    1   17 1   
     3    1   18 1   
     4    1   19 1   
     5    2    3 2   
     6    2    4 1   
     7    3    6 1   
     8    3   20 1   
     9    4    5 1   
    10    4   21 1   
    11    5    6 2   
    12    6    7 1   
    13    7    8 2   
    14    7    9 1   
    15    9   10 1   
    16   10   11 1   
    17   10   22 1   
    18   10   23 1   
    19   11   12 ar  
    20   11   16 ar  
    21   12   13 ar  
    22   12   24 1   
    23   13   14 ar  
    24   13   25 1   
    25   14   15 ar  
    26   14   26 1   
    27   15   16 ar  
    28   16   27 1   
@<TRIPOS>SUBSTRUCTURE
     1 PZX         1 TEMP              0 ****  ****    0 ROOT
