@<TRIPOS>MOLECULE
molecule
   27    28     1     0     0
SMALL
bcc


@<TRIPOS>ATOM
      1 C7           0.0000     0.0000     0.0000 c3         1 PZX      -0.021800
      2 C16          1.5080     0.0000     0.0000 cc         1 PZX      -0.146600
      3 C6           2.3110     0.0000     1.0890 cd         1 PZX      -0.249300
      4 N8           2.3080    -0.0080    -1.0880 na         1 PZX       0.041400
      5 N12          3.5420    -0.0120    -0.7310 nc         1 PZX      -0.475800
      6 C9           3.6330    -0.0020     0.5850 cd         1 PZX       0.274800
      7 C10          4.8760    -0.0020     1.3790 c          1 PZX       0.584600
      8 O14          4.8210     0.0090     2.5930 o          1 PZX      -0.547000
      9 O13          6.0720    -0.0130     0.7590 os         1 PZX      -0.407900
     10 C5           7.2530    -0.0120     1.6040 c3         1 PZX       0.200700
     11 C11          8.4890    -0.0250     0.7400 ca         1 PZX      -0.222600
     12 C3           9.0540    -1.2280     0.3440 ca         1 PZX      -0.068000
     13 C2          10.1900    -1.1920    -0.4500 ca         1 PZX      -0.259300
     14 C1          10.7170     0.0310    -0.8170 ca         1 PZX       0.428200
     15 N15         10.1520     1.1550    -0.4210 nb         1 PZX      -0.692000
     16 C4           9.0680     1.1590     0.3300 ca         1 PZX       0.445200
     17 H1          -0.3610    -0.9960    -0.2250 hc         1 PZX       0.052367
     18 H2          -0.3610     0.6930    -0.7500 hc         1 PZX       0.052367
     19 H3          -0.3610     0.3030     0.9750 hc         1 PZX       0.052367
     20 H4           2.0060     0.0080     2.1290 ha         1 PZX       0.178000
     21 H5           1.9860    -0.0140    -2.0350 hn         1 PZX       0.335700
     22 H6           7.2450    -0.8920     2.2370 h1         1 PZX       0.057200
     23 H7           7.2540     0.8770     2.2220 h1         1 PZX       0.057200
     24 H8           8.6190    -2.1720     0.6470 ha         1 PZX       0.142000
     25 H9          10.6590    -2.1120    -0.7780 ha         1 PZX       0.140000
     26 H10         11.6060     0.0680    -1.4350 h4         1 PZX       0.024100
     27 H11          8.6320     2.1030     0.6360 h4         1 PZX       0.027100
@<TRIPOS>BOND
     1     8     7 2
     2     5     4 1
     3     5     6 2
     4     4     2 1
     5     7     6 1
     6     7     9 1
     7     6     3 1
     8     2     3 2
     9     2     1 1
    10     9    10 1
    11    10    11 1
    12    11    16 ar
    13    11    12 ar
    14    16    15 ar
    15    12    13 ar
    16    15    14 ar
    17    13    14 ar
    18     1    17 1
    19     1    18 1
    20     1    19 1
    21     3    20 1
    22     4    21 1
    23    10    22 1
    24    10    23 1
    25    12    24 1
    26    13    25 1
    27    14    26 1
    28    16    27 1
@<TRIPOS>SUBSTRUCTURE
     1 PZX         1 TEMP              0 ****  ****    0 ROOT
