@<TRIPOS>MOLECULE
PZZ
   37    38     1     0     0
SMALL
bcc


@<TRIPOS>ATOM
      1 C2           0.0000     0.0000     0.0000 cc         1 PZZ      -0.270100
      2 C3           1.3420     0.0000     0.0000 cd         1 PZZ      -0.147400
      3 N1          -0.4670     0.0000     1.2850 na         1 PZZ       0.355600
      4 C4           3.0140    -0.0000     2.0360 ca         1 PZZ      -0.037000
      5 C5           3.0780    -0.0000     3.4010 ca         1 PZZ      -0.134000
      6 C6           1.9170    -0.0010     4.1620 ca         1 PZZ      -0.082000
      7 C7           0.6800    -0.0010     3.5560 ca         1 PZZ      -0.095300
      8 C8           1.7700     0.0000     1.4010 ca         1 PZZ      -0.079800
      9 C9           0.5900    -0.0000     2.1680 ca         1 PZZ      -0.219200
     10 C10          2.2390    -0.0000    -1.2110 c3         1 PZZ       0.249000
     11 N11          2.7240    -1.3640    -1.4610 n3         1 PZZ      -0.541600
     12 C12          1.6180    -2.2520    -1.8460 c3         1 PZZ       0.182100
     13 C13          3.7800    -1.3680    -2.4820 c3         1 PZZ       0.182100
     14 C14         -0.5730    -0.0010     4.3940 c3         1 PZZ       0.037900
     15 C15         -1.0670    -1.4390     4.5720 c3         1 PZZ      -0.039400
     16 C16         -2.3380    -1.4390     5.4240 c3         1 PZZ       0.224400
     17 O17         -2.7990    -2.7810     5.5900 oh         1 PZZ      -0.592800
     18 H2          -0.6220     0.0000    -0.8870 h4         1 PZZ       0.139000
     19 HN1         -1.4330     0.0000     1.5460 hn         1 PZZ       0.114700
     20 H4           3.9240    -0.0000     1.4490 ha         1 PZZ       0.105000
     21 H5           4.0430    -0.0000     3.8930 ha         1 PZZ       0.102000
     22 H6           1.9840    -0.0010     5.2430 ha         1 PZZ       0.102000
     23 H101         3.0830     0.6560    -1.0350 h1         1 PZZ       0.007200
     24 H102         1.6830     0.3490    -2.0720 h1         1 PZZ       0.007200
     25 H121         2.0180    -3.1470    -2.3090 h1         1 PZZ      -0.000300
     26 H122         1.0510    -2.5250    -0.9650 h1         1 PZZ      -0.000300
     27 H123         0.9710    -1.7410    -2.5480 h1         1 PZZ      -0.000300
     28 H131         4.1910    -2.3660    -2.5730 h1         1 PZZ      -0.000300
     29 H132         3.3640    -1.0600    -3.4340 h1         1 PZZ      -0.000300
     30 H133         4.5650    -0.6790    -2.1910 h1         1 PZZ      -0.000300
     31 H141        -0.3580     0.4300     5.3650 hc         1 PZZ       0.012700
     32 H142        -1.3380     0.5850     3.9000 hc         1 PZZ       0.012700
     33 H151        -1.2820    -1.8700     3.6020 hc         1 PZZ       0.026700
     34 H152        -0.3010    -2.0250     5.0660 hc         1 PZZ       0.026700
     35 H161        -3.1030    -0.8520     4.9310 h1         1 PZZ      -0.017800
     36 H162        -2.1220    -1.0090     6.3950 h1         1 PZZ      -0.017800
     37 HO17        -3.5800    -2.7820     6.1190 ho         1 PZZ       0.389000
@<TRIPOS>BOND
     1     1     2 2   
     2     1     3 1   
     3     1    18 1   
     4     2     8 1   
     5     2    10 1   
     6     3     9 1   
     7     3    19 1   
     8     4     5 ar  
     9     4     8 ar  
    10     4    20 1   
    11     5     6 ar  
    12     5    21 1   
    13     6     7 ar  
    14     6    22 1   
    15     7     9 ar  
    16     7    14 1   
    17     8     9 ar  
    18    10    11 1   
    19    10    23 1   
    20    10    24 1   
    21    11    12 1   
    22    11    13 1   
    23    12    25 1   
    24    12    26 1   
    25    12    27 1   
    26    13    28 1   
    27    13    29 1   
    28    13    30 1   
    29    14    15 1   
    30    14    31 1   
    31    14    32 1   
    32    15    16 1   
    33    15    33 1   
    34    15    34 1   
    35    16    17 1   
    36    16    35 1   
    37    16    36 1   
    38    17    37 1   
@<TRIPOS>SUBSTRUCTURE
     1 PZZ         1 TEMP              0 ****  ****    0 ROOT
