@<TRIPOS>MOLECULE
molecule
   21    21     1     0     0
SMALL
bcc


@<TRIPOS>ATOM
      1 O            0.0000     0.0000     0.0000 o          1 Q02      -0.826500
      2 P            1.6100     0.0000     0.0000 p5         1 Q02       0.869700
      3 O1           2.1470     1.3150    -0.7590 o          1 Q02      -0.826500
      4 O2           2.1030    -1.2080    -0.6990 o          1 Q02      -0.826500
      5 C            2.2190     0.0000     1.7190 c3         1 Q02       0.048600
      6 N            1.6330    -1.1350     2.4440 nz         1 Q02      -0.771600
      7 C1           3.7200    -0.1240     1.7190 ca         1 Q02      -0.056300
      8 C6           4.3110    -1.3720     1.6440 ca         1 Q02      -0.103000
      9 C5           5.6890    -1.4850     1.6470 ca         1 Q02      -0.129000
     10 C4           6.4760    -0.3510     1.7240 ca         1 Q02      -0.142000
     11 C3           5.8840     0.8960     1.7970 ca         1 Q02      -0.129000
     12 C2           4.5070     1.0090     1.7910 ca         1 Q02      -0.103000
     13 H3           1.9320     0.9260     2.2030 hx         1 Q02       0.094700
     14 H4           1.6880    -1.9580     1.8780 hn         1 Q02       0.427800
     15 H5           2.1370    -1.2820     3.2970 hn         1 Q02       0.427800
     16 H7           3.6940    -2.2600     1.5850 ha         1 Q02       0.133000
     17 H8           6.1520    -2.4630     1.5890 ha         1 Q02       0.118500
     18 H9           7.5550    -0.4400     1.7270 ha         1 Q02       0.113000
     19 H10          6.5010     1.7850     1.8550 ha         1 Q02       0.118500
     20 H11          4.0450     1.9870     1.8490 ha         1 Q02       0.133000
     21 HN3          0.6560    -0.9710     2.5870 hn         1 Q02       0.427800
@<TRIPOS>BOND
     1     3     2 1
     2     9     8 ar
     3     9    10 ar
     4     8     7 ar
     5    10    11 ar
     6     1     2 1
     7     2     4 1
     8     2     5 1
     9     7     5 1
    10     7    12 ar
    11    11    12 ar
    12     5     6 1
    13     5    13 1
    14     6    14 1
    15     6    15 1
    16     8    16 1
    17     9    17 1
    18    10    18 1
    19    11    19 1
    20    12    20 1
    21    21     6 1
@<TRIPOS>SUBSTRUCTURE
     1 Q02         1 TEMP              0 ****  ****    0 ROOT
