@<TRIPOS>MOLECULE
Q03
   27    27     1     0     0
SMALL
bcc


@<TRIPOS>ATOM
      1 O2           0.0000     0.0000     0.0000 o          1 Q03      -0.678167
      2 P            1.6100     0.0000     0.0000 p5         1 Q03       0.396700
      3 O            2.1470    -1.3150    -0.7580 o          1 Q03      -0.678167
      4 O1           2.1040     1.2070    -0.6980 o          1 Q03      -0.678167
      5 C            2.2180     0.0000     1.7190 c3         1 Q03      -0.103700
      6 N            3.6820    -0.1200     1.7210 nz         1 Q03       0.107400
      7 C1           1.8130     1.3080     2.4020 c3         1 Q03      -0.004700
      8 C6           2.4280     1.3640     3.8020 c3         1 Q03      -0.065400
      9 C5           2.0240     2.6710     4.4860 c3         1 Q03      -0.016900
     10 C4           0.4990     2.7390     4.5960 c3         1 Q03      -0.029400
     11 C3          -0.1160     2.6830     3.1950 c3         1 Q03      -0.016900
     12 C2           0.2890     1.3760     2.5120 c3         1 Q03      -0.065400
     13 H3           1.7860    -0.8360     2.2550 hx         1 Q03       0.072700
     14 H4           3.9910    -0.4200     2.6240 hn         1 Q03       0.184800
     15 H5           4.0900     0.7680     1.5070 hn         1 Q03       0.184800
     16 H7           2.1680     2.1500     1.8200 hc         1 Q03       0.054700
     17 H8           3.5080     1.3180     3.7230 hc         1 Q03       0.031950
     18 H9           2.0680     0.5250     4.3870 hc         1 Q03       0.031950
     19 H10          2.3800     3.5090     3.8990 hc         1 Q03       0.005450
     20 H11          2.4580     2.7070     5.4780 hc         1 Q03       0.005450
     21 H12          0.1430     1.8980     5.1790 hc         1 Q03       0.000200
     22 H13          0.2140     3.6660     5.0780 hc         1 Q03       0.000200
     23 H14          0.2430     3.5220     2.6110 hc         1 Q03       0.005450
     24 H15         -1.1960     2.7280     3.2750 hc         1 Q03       0.005450
     25 H16         -0.1450     1.3390     1.5200 hc         1 Q03       0.031950
     26 H17         -0.0670     0.5380     3.0990 hc         1 Q03       0.031950
     27 HN3          3.9670    -0.7420     0.9900 hn         1 Q03       0.184800
@<TRIPOS>BOND
     1     1     2 1   
     2     2     3 1   
     3     2     4 1   
     4     2     5 1   
     5     5     6 1   
     6     5     7 1   
     7     5    13 1   
     8     6    14 1   
     9     6    15 1   
    10     6    27 1   
    11     7     8 1   
    12     7    12 1   
    13     7    16 1   
    14     8     9 1   
    15     8    17 1   
    16     8    18 1   
    17     9    10 1   
    18     9    19 1   
    19     9    20 1   
    20    10    11 1   
    21    10    21 1   
    22    10    22 1   
    23    11    12 1   
    24    11    23 1   
    25    11    24 1   
    26    12    25 1   
    27    12    26 1   
@<TRIPOS>SUBSTRUCTURE
     1 Q03         1 TEMP              0 ****  ****    0 ROOT
