@<TRIPOS>MOLECULE
Q04
   30    30     1     0     0
SMALL
bcc


@<TRIPOS>ATOM
      1 O            0.0000     0.0000     0.0000 o          1 Q04      -0.679500
      2 P            1.6110     0.0000     0.0000 p5         1 Q04       0.378700
      3 O1           2.1480     0.0000     1.5180 o          1 Q04      -0.679500
      4 O2           2.1030    -1.2090    -0.6980 o          1 Q04      -0.679500
      5 C            2.2180     1.4870    -0.8600 c3         1 Q04      -0.107700
      6 N            3.6800     1.5580    -0.7410 nz         1 Q04       0.113400
      7 C1           1.8290     1.4170    -2.3380 c3         1 Q04       0.005600
      8 C2           2.2190     2.7240    -3.0310 c3         1 Q04      -0.079700
      9 C7           1.9570     2.6030    -4.5330 c3         1 Q04      -0.022400
     10 C6           2.3480     3.9100    -5.2260 c3         1 Q04      -0.025400
     11 C5           1.5140     5.0590    -4.6540 c3         1 Q04      -0.023400
     12 C4           1.7770     5.1800    -3.1520 c3         1 Q04      -0.025400
     13 C3           1.3860     3.8730    -2.4590 c3         1 Q04      -0.022400
     14 H3           1.7760     2.3690    -0.4120 hx         1 Q04       0.076700
     15 H4           3.9620     1.1760     0.1400 hn         1 Q04       0.181133
     16 H5           3.9740     2.5130    -0.8000 hn         1 Q04       0.181133
     17 H7           0.7590     1.2690    -2.4230 hc         1 Q04       0.054200
     18 H8           2.3470     0.5900    -2.8090 hc         1 Q04       0.054200
     19 H9           3.2710     2.9260    -2.8650 hc         1 Q04      -0.011300
     20 H10          2.5490     1.7910    -4.9380 hc         1 Q04       0.024200
     21 H11          0.9050     2.4080    -4.7010 hc         1 Q04       0.024200
     22 H12          2.1600     3.8240    -6.2900 hc         1 Q04       0.004200
     23 H13          3.3990     4.1090    -5.0550 hc         1 Q04       0.004200
     24 H14          1.7920     5.9840    -5.1440 hc         1 Q04       0.008700
     25 H15          0.4620     4.8580    -4.8200 hc         1 Q04       0.008700
     26 H16          2.8290     5.3750    -2.9850 hc         1 Q04       0.004200
     27 H17          1.1850     5.9920    -2.7470 hc         1 Q04       0.004200
     28 H18          0.3350     3.6750    -2.6300 hc         1 Q04       0.024200
     29 H19          1.5750     3.9590    -1.3960 hc         1 Q04       0.024200
     30 HN3          4.1010     1.0650    -1.5040 hn         1 Q04       0.181133
@<TRIPOS>BOND
     1     1     2 1   
     2     2     3 1   
     3     2     4 1   
     4     2     5 1   
     5     5     6 1   
     6     5     7 1   
     7     5    14 1   
     8     6    15 1   
     9     6    16 1   
    10     6    30 1   
    11     7     8 1   
    12     7    17 1   
    13     7    18 1   
    14     8     9 1   
    15     8    13 1   
    16     8    19 1   
    17     9    10 1   
    18     9    20 1   
    19     9    21 1   
    20    10    11 1   
    21    10    22 1   
    22    10    23 1   
    23    11    12 1   
    24    11    24 1   
    25    11    25 1   
    26    12    13 1   
    27    12    26 1   
    28    12    27 1   
    29    13    28 1   
    30    13    29 1   
@<TRIPOS>SUBSTRUCTURE
     1 Q04         1 TEMP              0 ****  ****    0 ROOT
