@<TRIPOS>MOLECULE
molecule
   30    30     1     0     0
SMALL
bcc


@<TRIPOS>ATOM
      1 O            0.0000     0.0000     0.0000 o          1 Q04      -0.835833
      2 P            1.6110     0.0000     0.0000 p5         1 Q04       0.890700
      3 O1           2.1480     0.0000     1.5180 o          1 Q04      -0.835833
      4 O2           2.1030    -1.2090    -0.6980 o          1 Q04      -0.835833
      5 C            2.2180     1.4870    -0.8600 c3         1 Q04      -0.013700
      6 N            3.6800     1.5580    -0.7410 nz         1 Q04      -0.764600
      7 C1           1.8290     1.4170    -2.3380 c3         1 Q04      -0.072400
      8 C2           2.2190     2.7240    -3.0310 c3         1 Q04      -0.088700
      9 C7           1.9570     2.6030    -4.5330 c3         1 Q04      -0.073400
     10 C6           2.3480     3.9100    -5.2260 c3         1 Q04      -0.081900
     11 C5           1.5140     5.0590    -4.6540 c3         1 Q04      -0.078400
     12 C4           1.7770     5.1800    -3.1520 c3         1 Q04      -0.081900
     13 C3           1.3860     3.8730    -2.4590 c3         1 Q04      -0.073400
     14 H3           1.7760     2.3690    -0.4120 hx         1 Q04       0.091700
     15 H4           3.9620     1.1760     0.1400 hn         1 Q04       0.421800
     16 H5           3.9740     2.5130    -0.8000 hn         1 Q04       0.421800
     17 H7           0.7590     1.2690    -2.4230 hc         1 Q04       0.089200
     18 H8           2.3470     0.5900    -2.8090 hc         1 Q04       0.089200
     19 H9           3.2710     2.9260    -2.8650 hc         1 Q04       0.005700
     20 H10          2.5490     1.7910    -4.9380 hc         1 Q04       0.050700
     21 H11          0.9050     2.4080    -4.7010 hc         1 Q04       0.050700
     22 H12          2.1600     3.8240    -6.2900 hc         1 Q04       0.031950
     23 H13          3.3990     4.1090    -5.0550 hc         1 Q04       0.031950
     24 H14          1.7920     5.9840    -5.1440 hc         1 Q04       0.036700
     25 H15          0.4620     4.8580    -4.8200 hc         1 Q04       0.036700
     26 H16          2.8290     5.3750    -2.9850 hc         1 Q04       0.031950
     27 H17          1.1850     5.9920    -2.7470 hc         1 Q04       0.031950
     28 H18          0.3350     3.6750    -2.6300 hc         1 Q04       0.050700
     29 H19          1.5750     3.9590    -1.3960 hc         1 Q04       0.050700
     30 HN3          4.1010     1.0650    -1.5040 hn         1 Q04       0.421800
@<TRIPOS>BOND
     1     6     5 1
     2    12    13 1
     3    12    11 1
     4     4     2 1
     5    13     8 1
     6     5     2 1
     7     5     7 1
     8     8     7 1
     9     8     9 1
    10    11    10 1
    11     2     1 1
    12     2     3 1
    13    10     9 1
    14     5    14 1
    15     6    15 1
    16     6    16 1
    17     7    17 1
    18     7    18 1
    19     8    19 1
    20     9    20 1
    21     9    21 1
    22    10    22 1
    23    10    23 1
    24    11    24 1
    25    11    25 1
    26    12    26 1
    27    12    27 1
    28    13    28 1
    29    13    29 1
    30    30     6 1
@<TRIPOS>SUBSTRUCTURE
     1 Q04         1 TEMP              0 ****  ****    0 ROOT
