@<TRIPOS>MOLECULE
Q05
   51    53     1     0     0
SMALL
bcc


@<TRIPOS>ATOM
      1 F23          0.0000     0.0000     0.0000 f          1 Q05      -0.129900
      2 C23          1.3510     0.0000     0.0000 ca         1 Q05       0.106900
      3 C24          2.0450     0.0000     1.1990 ca         1 Q05      -0.137000
      4 C25          3.4270    -0.0010     1.1970 ca         1 Q05      -0.072000
      5 C22          2.0450    -0.0060    -1.2000 ca         1 Q05      -0.132000
      6 C21          3.4260    -0.0060    -1.1980 ca         1 Q05      -0.063300
      7 C26          4.1160    -0.0000    -0.0010 ca         1 Q05      -0.110000
      8 C20          4.1800    -0.0120    -2.5030 c3         1 Q05       0.027900
      9 C19          4.4350     1.4280    -2.9510 c3         1 Q05       0.144800
     10 N18          5.1700     1.4230    -4.2220 n7         1 Q05      -0.584200
     11 C17          5.4340     2.7920    -4.6850 c3         1 Q05       0.202100
     12 C15          6.1880     2.7460    -5.9890 ca         1 Q05      -0.057300
     13 C14          7.5700     2.7220    -5.9870 ca         1 Q05      -0.122000
     14 C13          8.2650     2.6730    -7.1820 ca         1 Q05      -0.056000
     15 C12          7.5790     2.6500    -8.3800 ca         1 Q05      -0.209000
     16 C16          5.4980     2.7220    -7.1850 ca         1 Q05      -0.140000
     17 C11          6.1920     2.6740    -8.3840 ca         1 Q05       0.154100
     18 O09          5.5150     2.6500    -9.5630 os         1 Q05      -0.308900
     19 C08          6.2940     2.6000   -10.7590 c3         1 Q05       0.159100
     20 C06          5.3790     2.5800   -11.9550 ca         1 Q05       0.413600
     21 N01          5.8950     2.5330   -13.1690 nb         1 Q05      -0.653000
     22 C02          5.1280     2.5150   -14.2490 ca         1 Q05       0.515200
     23 N02          5.7140     2.4650   -15.5080 nv         1 Q05      -0.538500
     24 C03          3.7420     2.5420   -14.1340 ca         1 Q05      -0.305300
     25 C04          3.1720     2.5900   -12.8750 ca         1 Q05      -0.006300
     26 C05          4.0120     2.6040   -11.7670 ca         1 Q05      -0.273300
     27 C07          1.6750     2.6210   -12.7060 c3         1 Q05       0.060200
     28 H1           1.5040    -0.0000     2.1380 ha         1 Q05       0.118000
     29 H2           3.9690     0.0020     2.1350 ha         1 Q05       0.106000
     30 H3           1.5040    -0.0100    -2.1380 ha         1 Q05       0.121000
     31 H4           5.2000    -0.0000    -0.0010 ha         1 Q05       0.112000
     32 H5           3.5940    -0.5260    -3.2560 hc         1 Q05       0.026200
     33 H6           5.1260    -0.5220    -2.3710 hc         1 Q05       0.026200
     34 H7           3.4890     1.9390    -3.0830 h1         1 Q05       0.009700
     35 H8           5.0210     1.9420    -2.1980 h1         1 Q05       0.009700
     36 H9           4.6360     0.9340    -4.9140 hn         1 Q05       0.256800
     37 H11          6.0270     3.3150    -3.9440 h1         1 Q05       0.010200
     38 H12          4.4950     3.3120    -4.8290 h1         1 Q05       0.010200
     39 H13          8.1100     2.7400    -5.0480 ha         1 Q05       0.111000
     40 H14          9.3480     2.6540    -7.1770 ha         1 Q05       0.101000
     41 H15          8.1230     2.6120    -9.3160 ha         1 Q05       0.122000
     42 H16          4.4150     2.7410    -7.1860 ha         1 Q05       0.115000
     43 H17          6.9030     1.7040   -10.7550 h1         1 Q05       0.017700
     44 H18          6.9350     3.4720   -10.8090 h1         1 Q05       0.017700
     45 H19          5.1600     2.6330   -16.3250 hn         1 Q05       0.269800
     46 H20          6.6870     2.2500   -15.6000 hn         1 Q05       0.269800
     47 H21          3.1170     2.5280   -15.0190 ha         1 Q05       0.119000
     48 H22          3.5970     2.6420   -10.7670 ha         1 Q05       0.135000
     49 H23          1.3960     3.4870   -12.1180 hc         1 Q05       0.010367
     50 H24          1.2030     2.6780   -13.6790 hc         1 Q05       0.010367
     51 H25          1.3500     1.7200   -12.1990 hc         1 Q05       0.010367
@<TRIPOS>BOND
     1     1     2 1   
     2     2     3 ar  
     3     2     5 ar  
     4     3     4 ar  
     5     3    28 1   
     6     4     7 ar  
     7     4    29 1   
     8     5     6 ar  
     9     5    30 1   
    10     6     7 ar  
    11     6     8 1   
    12     7    31 1   
    13     8     9 1   
    14     8    32 1   
    15     8    33 1   
    16     9    10 1   
    17     9    34 1   
    18     9    35 1   
    19    10    11 1   
    20    10    36 1   
    21    11    12 1   
    22    11    37 1   
    23    11    38 1   
    24    12    13 ar  
    25    12    16 ar  
    26    13    14 ar  
    27    13    39 1   
    28    14    15 ar  
    29    14    40 1   
    30    15    17 ar  
    31    15    41 1   
    32    16    17 ar  
    33    16    42 1   
    34    17    18 1   
    35    18    19 1   
    36    19    20 1   
    37    19    43 1   
    38    19    44 1   
    39    20    21 ar  
    40    20    26 ar  
    41    21    22 ar  
    42    22    23 1   
    43    22    24 ar  
    44    23    45 1   
    45    23    46 1   
    46    24    25 ar  
    47    24    47 1   
    48    25    26 ar  
    49    25    27 1   
    50    26    48 1   
    51    27    49 1   
    52    27    50 1   
    53    27    51 1   
@<TRIPOS>SUBSTRUCTURE
     1 Q05         1 TEMP              0 ****  ****    0 ROOT
