@<TRIPOS>MOLECULE
Q06
   30    30     1     0     0
SMALL
bcc


@<TRIPOS>ATOM
      1 O2           0.0000     0.0000     0.0000 o          1 Q06      -0.678833
      2 P            1.6100     0.0000     0.0000 p5         1 Q06       0.394700
      3 O            2.1460     1.3150    -0.7590 o          1 Q06      -0.678833
      4 O1           2.1030    -1.2090    -0.6980 o          1 Q06      -0.678833
      5 C            2.2180     0.0000     1.7180 c3         1 Q06      -0.111700
      6 N            1.6310    -1.1350     2.4450 nz         1 Q06       0.129400
      7 C1           3.7430    -0.1260     1.7210 c3         1 Q06       0.025600
      8 C2           4.3520     1.0570     0.9640 c3         1 Q06      -0.080400
      9 C3           5.8770     0.9310     0.9670 c3         1 Q06      -0.044700
     10 C7           6.5220     2.1730     0.3190 c3         1 Q06      -0.025900
     11 C6           7.7330     1.6710    -0.4870 c3         1 Q06      -0.026900
     12 C5           7.7810     0.1400    -0.3020 c3         1 Q06      -0.026900
     13 C4           6.3260    -0.2440     0.0620 c3         1 Q06      -0.025900
     14 H4           1.9310     0.9250     2.2030 hx         1 Q06       0.068700
     15 H5           1.9950    -1.1590     3.3770 hn         1 Q06       0.177800
     16 H6           1.8640    -1.9880     1.9750 hn         1 Q06       0.177800
     17 H8           4.1040    -0.1260     2.7420 hc         1 Q06      -0.012300
     18 H9           4.0660     1.9820     1.4490 hc         1 Q06       0.078700
     19 H10          3.9920     1.0570    -0.0570 hc         1 Q06       0.078700
     20 H11          6.2510     0.7940     1.9740 hc         1 Q06      -0.002300
     21 H12          6.8490     2.8630     1.0870 hc         1 Q06       0.023450
     22 H13          5.8120     2.6550    -0.3420 hc         1 Q06       0.023450
     23 H14          8.6420     2.1190    -0.1050 hc         1 Q06       0.000200
     24 H15          7.6050     1.9130    -1.5350 hc         1 Q06       0.000200
     25 H16          8.0800    -0.3420    -1.2240 hc         1 Q06       0.000200
     26 H17          8.4540    -0.1210     0.5060 hc         1 Q06       0.000200
     27 H18          5.7110    -0.2980    -0.8280 hc         1 Q06       0.023450
     28 H19          6.3030    -1.1790     0.6100 hc         1 Q06       0.023450
     29 H2           4.0290    -1.0510     1.2360 hc         1 Q06      -0.012300
     30 HN3          0.6390    -1.0200     2.5000 hn         1 Q06       0.177800
@<TRIPOS>BOND
     1     1     2 1   
     2     2     3 1   
     3     2     4 1   
     4     2     5 1   
     5     5     6 1   
     6     5     7 1   
     7     5    14 1   
     8     6    15 1   
     9     6    16 1   
    10     6    30 1   
    11     7     8 1   
    12     7    17 1   
    13     7    29 1   
    14     8     9 1   
    15     8    18 1   
    16     8    19 1   
    17     9    10 1   
    18     9    13 1   
    19     9    20 1   
    20    10    11 1   
    21    10    21 1   
    22    10    22 1   
    23    11    12 1   
    24    11    23 1   
    25    11    24 1   
    26    12    13 1   
    27    12    25 1   
    28    12    26 1   
    29    13    27 1   
    30    13    28 1   
@<TRIPOS>SUBSTRUCTURE
     1 Q06         1 TEMP              0 ****  ****    0 ROOT
