@<TRIPOS>MOLECULE
Q07
   26    25     1     0     0
SMALL
bcc


@<TRIPOS>ATOM
      1 O2           0.0000     0.0000     0.0000 o          1 Q07      -0.679500
      2 P            1.6100     0.0000     0.0000 p5         1 Q07       0.385700
      3 O            2.1470     0.0000     1.5180 o          1 Q07      -0.679500
      4 O1           2.1030    -1.2090    -0.6970 o          1 Q07      -0.679500
      5 C5           2.2180     1.4890    -0.8590 c3         1 Q07      -0.103700
      6 N            3.6820     1.5500    -0.7560 nz         1 Q07       0.110400
      7 C3           1.8130     1.4280    -2.3330 c3         1 Q07      -0.011700
      8 C4           0.2880     1.4890    -2.4470 c3         1 Q07      -0.012100
      9 C2           2.4280     2.6120    -3.0810 c3         1 Q07      -0.056400
     10 C1           2.1280     2.4840    -4.5760 c3         1 Q07      -0.032400
     11 C            2.7430     3.6690    -5.3230 c3         1 Q07       0.004900
     12 H3           1.7860     2.3710    -0.4030 hx         1 Q07       0.070700
     13 H4           3.9920     0.9270    -0.0370 hn         1 Q07       0.183467
     14 H5           3.9620     2.4840    -0.5310 hn         1 Q07       0.183467
     15 H7           2.1700     0.5020    -2.7680 hc         1 Q07       0.053700
     16 H8          -0.0900     0.5230    -2.7560 hc         1 Q07       0.023700
     17 H9          -0.1350     1.7520    -1.4850 hc         1 Q07       0.023700
     18 H10          0.0110     2.2370    -3.1800 hc         1 Q07       0.023700
     19 H11          3.5010     2.6180    -2.9270 hc         1 Q07      -0.008300
     20 H12          2.0040     3.5360    -2.7050 hc         1 Q07      -0.008300
     21 H13          1.0560     2.4780    -4.7290 hc         1 Q07       0.024200
     22 H14          2.5520     1.5610    -4.9510 hc         1 Q07       0.024200
     23 H15          2.4940     3.6010    -6.3750 hc         1 Q07      -0.007300
     24 H16          2.3520     4.5940    -4.9180 hc         1 Q07      -0.007300
     25 H17          3.8200     3.6500    -5.2050 hc         1 Q07      -0.007300
     26 HN3          4.0900     1.2800    -1.6290 hn         1 Q07       0.183467
@<TRIPOS>BOND
     1     1     2 1   
     2     2     3 1   
     3     2     4 1   
     4     2     5 1   
     5     5     6 1   
     6     5     7 1   
     7     5    12 1   
     8     6    13 1   
     9     6    14 1   
    10     6    26 1   
    11     7     8 1   
    12     7     9 1   
    13     7    15 1   
    14     8    16 1   
    15     8    17 1   
    16     8    18 1   
    17     9    10 1   
    18     9    19 1   
    19     9    20 1   
    20    10    11 1   
    21    10    21 1   
    22    10    22 1   
    23    11    23 1   
    24    11    24 1   
    25    11    25 1   
@<TRIPOS>SUBSTRUCTURE
     1 Q07         1 TEMP              0 ****  ****    0 ROOT
