@<TRIPOS>MOLECULE
molecule
   26    25     1     0     0
SMALL
bcc


@<TRIPOS>ATOM
      1 O2           0.0000     0.0000     0.0000 o          1 Q07      -0.836167
      2 P            1.6100     0.0000     0.0000 p5         1 Q07       0.895700
      3 O            2.1470     0.0000     1.5180 o          1 Q07      -0.836167
      4 O1           2.1030    -1.2090    -0.6970 o          1 Q07      -0.836167
      5 C5           2.2180     1.4890    -0.8590 c3         1 Q07      -0.011700
      6 N            3.6820     1.5500    -0.7560 nz         1 Q07      -0.765600
      7 C3           1.8130     1.4280    -2.3330 c3         1 Q07      -0.066700
      8 C4           0.2880     1.4890    -2.4470 c3         1 Q07      -0.080100
      9 C2           2.4280     2.6120    -3.0810 c3         1 Q07      -0.095400
     10 C1           2.1280     2.4840    -4.5760 c3         1 Q07      -0.082400
     11 C            2.7430     3.6690    -5.3230 c3         1 Q07      -0.094100
     12 H3           1.7860     2.3710    -0.4030 hx         1 Q07       0.087700
     13 H4           3.9920     0.9270    -0.0370 hn         1 Q07       0.422467
     14 H5           3.9620     2.4840    -0.5310 hn         1 Q07       0.422467
     15 H7           2.1700     0.5020    -2.7680 hc         1 Q07       0.081700
     16 H8          -0.0900     0.5230    -2.7560 hc         1 Q07       0.054367
     17 H9          -0.1350     1.7520    -1.4850 hc         1 Q07       0.054367
     18 H10          0.0110     2.2370    -3.1800 hc         1 Q07       0.054367
     19 H11          3.5010     2.6180    -2.9270 hc         1 Q07       0.015700
     20 H12          2.0040     3.5360    -2.7050 hc         1 Q07       0.015700
     21 H13          1.0560     2.4780    -4.7290 hc         1 Q07       0.051200
     22 H14          2.5520     1.5610    -4.9510 hc         1 Q07       0.051200
     23 H15          2.4940     3.6010    -6.3750 hc         1 Q07       0.025367
     24 H16          2.3520     4.5940    -4.9180 hc         1 Q07       0.025367
     25 H17          3.8200     3.6500    -5.2050 hc         1 Q07       0.025367
     26 HN3          4.0900     1.2800    -1.6290 hn         1 Q07       0.422467
@<TRIPOS>BOND
     1     6     5 1
     2     9    10 1
     3     9     7 1
     4     5     7 1
     5     5     2 1
     6     4     2 1
     7    11    10 1
     8     7     8 1
     9     2     3 1
    10     2     1 1
    11     5    12 1
    12     6    13 1
    13     6    14 1
    14     7    15 1
    15     8    16 1
    16     8    17 1
    17     8    18 1
    18     9    19 1
    19     9    20 1
    20    10    21 1
    21    10    22 1
    22    11    23 1
    23    11    24 1
    24    11    25 1
    25    26     6 1
@<TRIPOS>SUBSTRUCTURE
     1 Q07         1 TEMP              0 ****  ****    0 ROOT
