@<TRIPOS>MOLECULE
Q08
   32    31     1     0     0
SMALL
bcc


@<TRIPOS>ATOM
      1 O2           0.0000     0.0000     0.0000 o          1 Q08      -0.673167
      2 P            1.6100     0.0000     0.0000 p5         1 Q08       0.417700
      3 O            2.1470     0.0000     1.5180 o          1 Q08      -0.673167
      4 O1           2.1040    -1.2080    -0.6970 o          1 Q08      -0.673167
      5 C7           2.2180     1.4890    -0.8600 c3         1 Q08      -0.114700
      6 N            3.6870     1.4890    -0.8590 nz         1 Q08       0.063400
      7 C3           1.7080     1.4880    -2.3020 c3         1 Q08       0.025300
      8 C4           2.1070     0.1770    -2.9840 c3         1 Q08      -0.115900
      9 C5           3.6330     0.0730    -3.0370 c3         1 Q08      -0.027900
     10 C6           4.0320    -1.1700    -3.8320 c3         1 Q08       0.010900
     11 C2           0.1840     1.6200    -2.3050 c3         1 Q08      -0.115900
     12 C1          -0.2090     2.9830    -1.7320 c3         1 Q08      -0.027900
     13 C           -1.7330     3.0700    -1.6230 c3         1 Q08       0.010900
     14 H3           1.8560     2.3730    -0.3500 hx         1 Q08       0.077700
     15 H4           4.0210     0.5590    -0.6960 hn         1 Q08       0.200133
     16 H5           4.0210     1.8120    -1.7450 hn         1 Q08       0.200133
     17 H7           2.1440     2.3210    -2.8390 hc         1 Q08      -0.038300
     18 H8           1.7080    -0.6590    -2.4220 hc         1 Q08       0.076950
     19 H9           1.7090     0.1580    -3.9910 hc         1 Q08       0.076950
     20 H10          4.0260    -0.0010    -2.0300 hc         1 Q08      -0.008050
     21 H11          4.0380     0.9550    -3.5180 hc         1 Q08      -0.008050
     22 H12          3.7450    -1.0430    -4.8690 hc         1 Q08      -0.002800
     23 H13          3.5290    -2.0380    -3.4220 hc         1 Q08      -0.002800
     24 H14          5.1040    -1.3110    -3.7690 hc         1 Q08      -0.002800
     25 H15         -0.1840     1.5360    -3.3210 hc         1 Q08       0.076950
     26 H16         -0.2480     0.8350    -1.6980 hc         1 Q08       0.076950
     27 H17          0.2300     3.1020    -0.7490 hc         1 Q08      -0.008050
     28 H18          0.1510     3.7680    -2.3870 hc         1 Q08      -0.008050
     29 H19         -2.1750     2.9080    -2.5990 hc         1 Q08      -0.002800
     30 H20         -2.0140     4.0510    -1.2590 hc         1 Q08      -0.002800
     31 H21         -2.0900     2.3140    -0.9350 hc         1 Q08      -0.002800
     32 HN3          4.0200     2.0450    -0.0970 hn         1 Q08       0.200133
@<TRIPOS>BOND
     1     1     2 1   
     2     2     3 1   
     3     2     4 1   
     4     2     5 1   
     5     5     6 1   
     6     5     7 1   
     7     5    14 1   
     8     6    15 1   
     9     6    16 1   
    10     6    32 1   
    11     7     8 1   
    12     7    11 1   
    13     7    17 1   
    14     8     9 1   
    15     8    18 1   
    16     8    19 1   
    17     9    10 1   
    18     9    20 1   
    19     9    21 1   
    20    10    22 1   
    21    10    23 1   
    22    10    24 1   
    23    11    12 1   
    24    11    25 1   
    25    11    26 1   
    26    12    13 1   
    27    12    27 1   
    28    12    28 1   
    29    13    29 1   
    30    13    30 1   
    31    13    31 1   
@<TRIPOS>SUBSTRUCTURE
     1 Q08         1 TEMP              0 ****  ****    0 ROOT
