@<TRIPOS>MOLECULE
molecule
   52    55     1     0     0
SMALL
bcc


@<TRIPOS>ATOM
      1 Cl           0.0000     0.0000     0.0000 cl         1 Q0B      -0.091400
      2 C15          1.7360     0.0000     0.0000 ca         1 Q0B       0.039400
      3 C16          2.4290     0.0000     1.1970 ca         1 Q0B      -0.120000
      4 C17          3.8110    -0.0000     1.1970 ca         1 Q0B      -0.108000
      5 C18          4.5060    -0.0010     0.0020 ca         1 Q0B      -0.124000
      6 C19          3.8210    -0.0010    -1.1980 ca         1 Q0B      -0.099000
      7 C14          2.4320    -0.0060    -1.2030 ca         1 Q0B       0.001800
      8 N11          1.7340    -0.0070    -2.4180 na         1 Q0B      -0.125200
      9 C10          1.3530    -1.1290    -3.0910 cc         1 Q0B       0.273900
     10 N21          1.5960    -2.4120    -2.6760 nv         1 Q0B      -0.949600
     11 C12          1.3330     1.1290    -3.0940 ca         1 Q0B       0.380500
     12 C8           0.6410     0.6830    -4.3070 ca         1 Q0B       0.369800
     13 N7           0.1470     1.5670    -5.1510 nb         1 Q0B      -0.618000
     14 C5           0.2840     2.8730    -4.8930 ca         1 Q0B       0.295300
     15 C6          -0.2370     3.8310    -5.7830 ca         1 Q0B      -0.152300
     16 C1          -0.0930     5.1560    -5.5100 ca         1 Q0B      -0.130000
     17 C2           0.5650     5.5820    -4.3580 ca         1 Q0B      -0.118000
     18 C3           1.0810     4.6850    -3.4750 ca         1 Q0B      -0.166300
     19 C4           0.9530     3.3070    -3.7210 ca         1 Q0B       0.329300
     20 N13          1.4600     2.4170    -2.8580 nb         1 Q0B      -0.669000
     21 C9           0.6790    -0.7880    -4.2600 cd         1 Q0B      -0.346000
     22 C22          0.1200    -1.7090    -5.2470 c          1 Q0B       0.718300
     23 O23          0.8020    -2.0860    -6.1820 o          1 Q0B      -0.599100
     24 N24         -1.1510    -2.1420    -5.1210 ns         1 Q0B      -0.578900
     25 C35         -1.7110    -3.0640    -6.1100 c3         1 Q0B       0.114000
     26 C36         -3.1580    -3.3950    -5.7370 c3         1 Q0B      -0.101400
     27 C37         -3.7430    -4.3600    -6.7710 c3         1 Q0B       0.143400
     28 O38         -5.0940    -4.6680    -6.4230 os         1 Q0B      -0.433600
     29 C39         -5.7370    -5.5670    -7.3280 c3         1 Q0B       0.137400
     30 C40         -7.1710    -5.8250    -6.8590 c3         1 Q0B      -0.091100
     31 H1           1.8870     0.0010     2.1360 ha         1 Q0B       0.150000
     32 H2           4.3510    -0.0000     2.1360 ha         1 Q0B       0.141000
     33 H3           5.5890     0.0010     0.0060 ha         1 Q0B       0.142000
     34 H4           4.3670    -0.0030    -2.1340 ha         1 Q0B       0.152000
     35 H5           2.4100    -2.8970    -2.9990 hn         1 Q0B       0.448800
     36 H6           0.9470    -2.8720    -2.0680 hn         1 Q0B       0.448800
     37 H7          -0.7510     3.5140    -6.6830 ha         1 Q0B       0.151000
     38 H8          -0.4950     5.8900    -6.1980 ha         1 Q0B       0.134000
     39 H9           0.6660     6.6430    -4.1630 ha         1 Q0B       0.134000
     40 H10          1.5900     5.0330    -2.5830 ha         1 Q0B       0.148000
     41 H11         -1.7170    -1.8160    -4.3630 hn         1 Q0B       0.318500
     42 H12         -1.6880    -2.6020    -7.0900 h1         1 Q0B       0.052700
     43 H13         -1.1250    -3.9760    -6.1270 h1         1 Q0B       0.052700
     44 H14         -3.1820    -3.8570    -4.7570 hc         1 Q0B       0.057200
     45 H15         -3.7440    -2.4840    -5.7210 hc         1 Q0B       0.057200
     46 H16         -3.7190    -3.8980    -7.7500 h1         1 Q0B       0.026200
     47 H17         -3.1580    -5.2710    -6.7860 h1         1 Q0B       0.026200
     48 H18         -5.7550    -5.1300    -8.3190 h1         1 Q0B       0.022200
     49 H19         -5.1930    -6.5030    -7.3560 h1         1 Q0B       0.022200
     50 H20         -7.7170    -4.8900    -6.8330 hc         1 Q0B       0.043700
     51 H21         -7.1540    -6.2610    -5.8670 hc         1 Q0B       0.043700
     52 H22         -7.6580    -6.5080    -7.5450 hc         1 Q0B       0.043700
@<TRIPOS>BOND
     1    17    16 ar
     2    17    18 ar
     3    16    15 ar
     4    18    19 ar
     5    15    14 ar
     6    19    14 ar
     7    19    20 ar
     8    14    13 ar
     9    20    11 ar
    10    13    12 ar
    11    11    12 ar
    12    11     8 1
    13     5     6 ar
    14     5     4 ar
    15     6     7 ar
    16     4     3 ar
    17    12    21 1
    18    30    29 1
    19     7     8 1
    20     7     2 ar
    21     3     2 ar
    22     8     9 1
    23     2     1 1
    24    28    29 1
    25    28    27 1
    26    21     9 2
    27    21    22 1
    28     9    10 1
    29    24    22 1
    30    24    25 1
    31    26    27 1
    32    26    25 1
    33    22    23 2
    34     3    31 1
    35     4    32 1
    36     5    33 1
    37     6    34 1
    38    10    35 1
    39    10    36 1
    40    15    37 1
    41    16    38 1
    42    17    39 1
    43    18    40 1
    44    24    41 1
    45    25    42 1
    46    25    43 1
    47    26    44 1
    48    26    45 1
    49    27    46 1
    50    27    47 1
    51    29    48 1
    52    29    49 1
    53    30    50 1
    54    30    51 1
    55    30    52 1
@<TRIPOS>SUBSTRUCTURE
     1 Q0B         1 TEMP              0 ****  ****    0 ROOT
