@<TRIPOS>MOLECULE
Q0K
   31    33     1     0     0
SMALL
bcc


@<TRIPOS>ATOM
      1 CAA          0.0000     0.0000     0.0000 c3         1 Q0K       0.058200
      2 OAC          3.7180     2.3220     4.2490 o          1 Q0K      -0.596500
      3 CAD          2.5030     0.0000     0.0000 ca         1 Q0K      -0.099500
      4 CAE          1.3530    -0.0000     2.1050 ca         1 Q0K      -0.099500
      5 CAF          3.7160     0.0000     0.6550 ca         1 Q0K      -0.063500
      6 CAG          2.5610    -0.0000     2.7720 ca         1 Q0K      -0.063500
      7 CAH          6.1010    -0.8340     2.5360 cc         1 Q0K      -0.262300
      8 NAI          7.3970     1.1870     5.1760 nc         1 Q0K      -0.348100
      9 NAJ          7.1220    -0.5230     3.3920 na         1 Q0K       0.475900
     10 NAK          5.5500     2.5900     5.5060 ns         1 Q0K      -0.007400
     11 CAL          1.3230    -0.0000     0.7230 ca         1 Q0K      -0.058300
     12 CAM          6.8150     2.1810     5.8070 cd         1 Q0K      -0.027200
     13 CAN          3.7530    -0.0000     2.0490 ca         1 Q0K      -0.068000
     14 CAO          5.0540    -0.0020     2.7600 cd         1 Q0K       0.038000
     15 CAP          4.8500     1.9680     4.5300 c          1 Q0K       0.643100
     16 CAQ          6.7670     0.5220     4.1960 cc         1 Q0K      -0.150900
     17 CAR          5.4650     0.8990     3.8450 cd         1 Q0K      -0.207600
     18 HAA         -0.4510     0.9820     0.0730 hc         1 Q0K       0.014367
     19 HAAA        -0.6570    -0.7340     0.4500 hc         1 Q0K       0.014367
     20 HAAB         0.1580    -0.2480    -1.0430 hc         1 Q0K       0.014367
     21 HNAB         7.5960     3.7970     6.5670 hn         1 Q0K       0.214133
     22 HNAA         8.4110     2.4200     6.9010 hn         1 Q0K       0.214133
     23 HAD          2.4730     0.0000    -1.0830 ha         1 Q0K       0.114500
     24 HAE          0.4260    -0.0000     2.6660 ha         1 Q0K       0.114500
     25 HAF          4.6390     0.0000     0.0880 ha         1 Q0K       0.104000
     26 HAG          2.5840    -0.0010     3.8550 ha         1 Q0K       0.104000
     27 HAH          6.1250    -1.6240     1.7950 h4         1 Q0K       0.175000
     28 HNAJ         8.0050    -0.9940     3.4240 hn         1 Q0K       0.126700
     29 HNAK         5.1380     3.3520     6.0080 hn         1 Q0K       0.185500
     30 HAB3         7.0020     2.7420     7.6650 hn         1 Q0K       0.214133
     31 NAB          7.5020     2.8290     6.8020 nz         1 Q0K       0.224400
@<TRIPOS>BOND
     1     1    11 1   
     2     1    18 1   
     3     1    19 1   
     4     1    20 1   
     5     2    15 2   
     6     3     5 ar  
     7     3    11 ar  
     8     3    23 1   
     9     4     6 ar  
    10     4    11 ar  
    11     4    24 1   
    12     5    13 ar  
    13     5    25 1   
    14     6    13 ar  
    15     6    26 1   
    16     7     9 1   
    17     7    14 2   
    18     7    27 1   
    19     8    12 2   
    20     8    16 1   
    21     9    16 1   
    22     9    28 1   
    23    10    12 1   
    24    10    15 1   
    25    10    29 1   
    26    12    31 1   
    27    13    14 1   
    28    14    17 1   
    29    15    17 1   
    30    16    17 2   
    31    21    31 1   
    32    22    31 1   
    33    30    31 1   
@<TRIPOS>SUBSTRUCTURE
     1 Q0K         1 TEMP              0 ****  ****    0 ROOT
