@<TRIPOS>MOLECULE
molecule
   31    33     1     0     0
SMALL
bcc


@<TRIPOS>ATOM
      1 CAA          0.0000     0.0000     0.0000 c3         1 Q0K      -0.054800
      2 OAC          3.7180     2.3220     4.2490 o          1 Q0K      -0.554500
      3 CAD          2.5030     0.0000     0.0000 ca         1 Q0K      -0.126500
      4 CAE          1.3530    -0.0000     2.1050 ca         1 Q0K      -0.126500
      5 CAF          3.7160     0.0000     0.6550 ca         1 Q0K      -0.091000
      6 CAG          2.5610    -0.0000     2.7720 ca         1 Q0K      -0.091000
      7 CAH          6.1010    -0.8340     2.5360 cc         1 Q0K      -0.073300
      8 NAI          7.3970     1.1870     5.1760 nc         1 Q0K      -0.560100
      9 NAJ          7.1220    -0.5230     3.3920 na         1 Q0K      -0.120100
     10 NAK          5.5500     2.5900     5.5060 ns         1 Q0K      -0.469400
     11 CAL          1.3230    -0.0000     0.7230 ca         1 Q0K      -0.053300
     12 CAM          6.8150     2.1810     5.8070 cd         1 Q0K       0.446800
     13 CAN          3.7530    -0.0000     2.0490 ca         1 Q0K      -0.063000
     14 CAO          5.0540    -0.0020     2.7600 cd         1 Q0K      -0.011000
     15 CAP          4.8500     1.9680     4.5300 c          1 Q0K       0.731100
     16 CAQ          6.7670     0.5220     4.1960 cc         1 Q0K       0.130100
     17 CAR          5.4650     0.8990     3.8450 cd         1 Q0K      -0.197600
     18 HAA         -0.4510     0.9820     0.0730 hc         1 Q0K       0.051700
     19 HAAA        -0.6570    -0.7340     0.4500 hc         1 Q0K       0.051700
     20 HAAB         0.1580    -0.2480    -1.0430 hc         1 Q0K       0.051700
     21 HNAB         7.5960     3.7970     6.5670 hn         1 Q0K       0.476133
     22 HNAA         8.4110     2.4200     6.9010 hn         1 Q0K       0.476133
     23 HAD          2.4730     0.0000    -1.0830 ha         1 Q0K       0.142000
     24 HAE          0.4260    -0.0000     2.6660 ha         1 Q0K       0.142000
     25 HAF          4.6390     0.0000     0.0880 ha         1 Q0K       0.131500
     26 HAG          2.5840    -0.0010     3.8550 ha         1 Q0K       0.131500
     27 HAH          6.1250    -1.6240     1.7950 h4         1 Q0K       0.209000
     28 HNAJ         8.0050    -0.9940     3.4240 hn         1 Q0K       0.324700
     29 HNAK         5.1380     3.3520     6.0080 hn         1 Q0K       0.344500
     30 HAB3         7.0020     2.7420     7.6650 hn         1 Q0K       0.476133
     31 NAB          7.5020     2.8290     6.8020 nz         1 Q0K      -0.726600
@<TRIPOS>BOND
     1     1    11 1
     2    31    12 1
     3     2    15 2
     4     3     5 ar
     5     3    11 ar
     6     4     6 ar
     7     4    11 ar
     8     5    13 ar
     9     6    13 ar
    10     7     9 1
    11     7    14 2
    12     8    12 2
    13     8    16 1
    14     9    16 1
    15    10    12 1
    16    10    15 1
    17    13    14 1
    18    14    17 1
    19    15    17 1
    20    16    17 2
    21     1    18 1
    22     1    19 1
    23     1    20 1
    24    31    21 1
    25    31    22 1
    26     3    23 1
    27     4    24 1
    28     5    25 1
    29     6    26 1
    30     7    27 1
    31     9    28 1
    32    10    29 1
    33    30    31 1
@<TRIPOS>SUBSTRUCTURE
     1 Q0K         1 TEMP              0 ****  ****    0 ROOT
