@<TRIPOS>MOLECULE
molecule
   43    44     1     0     0
SMALL
bcc


@<TRIPOS>ATOM
      1 N14          0.0000     0.0000     0.0000 nz         1 Q10      -0.809600
      2 C13          1.4690     0.0000     0.0000 c3         1 Q10       0.093800
      3 C12          1.9790     0.0000     1.4420 c3         1 Q10      -0.117400
      4 C11          3.5090    -0.0010     1.4430 c3         1 Q10       0.157400
      5 O10          3.9850    -0.0010     2.7900 os         1 Q10      -0.326900
      6 C25          5.3320    -0.0000     2.9680 ca         1 Q10       0.155100
      7 C24          6.1780    -0.0010     1.8690 ca         1 Q10      -0.263000
      8 C23          7.5480    -0.0020     2.0500 ca         1 Q10      -0.044000
      9 C22          8.0790    -0.0030     3.3250 ca         1 Q10      -0.240000
     10 C26          5.8620     0.0050     4.2500 ca         1 Q10      -0.183000
     11 C21          7.2370    -0.0020     4.4290 ca         1 Q10       0.193100
     12 O09          7.7590    -0.0020     5.6830 os         1 Q10      -0.321900
     13 C08          9.1840    -0.0040     5.7930 c3         1 Q10       0.093100
     14 C06          9.5760    -0.0040     7.2470 ca         1 Q10       0.462600
     15 N01         10.8540    -0.0050     7.5780 nb         1 Q10      -0.771000
     16 C02         11.2440    -0.0050     8.8420 ca         1 Q10       0.716200
     17 N02         12.6010    -0.0060     9.1450 nv         1 Q10      -1.014500
     18 C03         10.3080    -0.0040     9.8720 ca         1 Q10      -0.316300
     19 C04          8.9620    -0.0030     9.5570 ca         1 Q10      -0.006300
     20 C05          8.5950     0.0020     8.2170 ca         1 Q10      -0.289300
     21 C07          7.9160    -0.0020    10.6420 c3         1 Q10      -0.050800
     22 H1          -0.3340     0.0060    -0.9440 hn         1 Q10       0.459800
     23 H2          -0.3340    -0.8200     0.4670 hn         1 Q10       0.459800
     24 H4           1.8300    -0.8850    -0.5110 hx         1 Q10       0.113700
     25 H5           1.8300     0.8840    -0.5110 hx         1 Q10       0.113700
     26 H6           1.6180     0.8850     1.9530 hc         1 Q10       0.079700
     27 H7           1.6170    -0.8840     1.9530 hc         1 Q10       0.079700
     28 H8           3.8700    -0.8860     0.9330 h1         1 Q10       0.048700
     29 H9           3.8710     0.8830     0.9330 h1         1 Q10       0.048700
     30 H10          5.7640    -0.0010     0.8680 ha         1 Q10       0.121000
     31 H11          8.2070    -0.0030     1.1900 ha         1 Q10       0.141000
     32 H12          9.1530    -0.0050     3.4640 ha         1 Q10       0.151000
     33 H13          5.2030     0.0060     5.1100 ha         1 Q10       0.160000
     34 H14          9.5820    -0.8880     5.3110 h1         1 Q10       0.060700
     35 H15          9.5840     0.8810     5.3110 h1         1 Q10       0.060700
     36 H16         12.9080    -0.2470    10.0670 hn         1 Q10       0.442300
     37 H17         13.2720     0.2180     8.4380 hn         1 Q10       0.442300
     38 H18         10.6260     0.1750    10.8920 ha         1 Q10       0.141000
     39 H19          7.5600     0.1650     7.9400 ha         1 Q10       0.150000
     40 H20          7.9790     0.9220    11.2030 hc         1 Q10       0.049033
     41 H21          6.9330    -0.0870    10.1960 hc         1 Q10       0.049033
     42 H22          8.0850    -0.8400    11.3070 hc         1 Q10       0.049033
     43 H143        -0.3340     0.8110     0.4820 hn         1 Q10       0.459800
@<TRIPOS>BOND
     1    21    19 1
     2    19    18 ar
     3    19    20 ar
     4    18    16 ar
     5    20    14 ar
     6    16    17 1
     7    16    15 ar
     8    14    15 ar
     9    14    13 1
    10     9     8 ar
    11     9    11 ar
    12     8     7 ar
    13    13    12 1
    14    12    11 1
    15    11    10 ar
    16     7     6 ar
    17    10     6 ar
    18     6     5 1
    19     5     4 1
    20     3     2 1
    21     3     4 1
    22     2     1 1
    23     1    22 1
    24     1    23 1
    25     2    24 1
    26     2    25 1
    27     3    26 1
    28     3    27 1
    29     4    28 1
    30     4    29 1
    31     7    30 1
    32     8    31 1
    33     9    32 1
    34    10    33 1
    35    13    34 1
    36    13    35 1
    37    17    36 1
    38    17    37 1
    39    18    38 1
    40    20    39 1
    41    21    40 1
    42    21    41 1
    43    21    42 1
    44    43     1 1
@<TRIPOS>SUBSTRUCTURE
     1 Q10         1 TEMP              0 ****  ****    0 ROOT
