@<TRIPOS>MOLECULE
molecule
   34    36     1     0     0
SMALL
bcc


@<TRIPOS>ATOM
      1 C1           0.0000     0.0000     0.0000 ca         1 Q11       0.777200
      2 N2           1.3260     0.0000     0.0000 nb         1 Q11      -0.820000
      3 C3           2.0190     0.0000     1.1350 ca         1 Q11       0.956900
      4 N4           1.4460     0.0020     2.3220 nb         1 Q11      -0.814000
      5 C5           0.1070     0.0030     2.4300 ca         1 Q11       0.496600
      6 C6          -0.6730     0.0020     1.2470 ca         1 Q11      -0.339600
      7 C7          -0.5320     0.0040     3.6750 ca         1 Q11      -0.193300
      8 C8          -1.9160     0.0040     3.7290 cp         1 Q11       0.016000
      9 C9          -2.6760     0.0030     2.5490 ca         1 Q11      -0.136000
     10 C10         -2.0710     0.0020     1.3310 ca         1 Q11      -0.073000
     11 N11         -0.7060     0.0050    -1.1840 nv         1 Q11      -1.082500
     12 N12          3.4010    -0.0010     1.0660 nv         1 Q11      -0.993500
     13 C13         -2.6000     0.0050     5.0440 cp         1 Q11      -0.077000
     14 C14         -2.2370    -0.9170     6.0230 ca         1 Q11      -0.077000
     15 C15         -2.8760    -0.9120     7.2460 ca         1 Q11      -0.168000
     16 C16         -3.8790     0.0060     7.5040 ca         1 Q11      -0.085000
     17 C17         -4.2480     0.9260     6.5400 ca         1 Q11      -0.222000
     18 C18         -3.6100     0.9350     5.3100 ca         1 Q11       0.154100
     19 O19         -3.9670     1.8420     4.3640 os         1 Q11      -0.321900
     20 C20         -5.0070     2.7610     4.7060 c3         1 Q11       0.126700
     21 H7           0.0500     0.0050     4.5880 ha         1 Q11       0.152000
     22 H9          -3.7570     0.0030     2.6090 ha         1 Q11       0.139000
     23 H10         -2.6690     0.0010     0.4270 ha         1 Q11       0.136000
     24 HN11        -0.9640     0.8730    -1.6100 hn         1 Q11       0.442800
     25 HN1A        -0.9320    -0.8600    -1.6360 hn         1 Q11       0.442800
     26 HN12         3.9440     0.0440     1.9060 hn         1 Q11       0.448300
     27 HN1B         3.8580    -0.0370     0.1770 hn         1 Q11       0.448300
     28 H14         -1.4520    -1.6370     5.8250 ha         1 Q11       0.142000
     29 H15         -2.5920    -1.6290     8.0060 ha         1 Q11       0.133000
     30 H16         -4.3780     0.0030     8.4650 ha         1 Q11       0.130000
     31 H17         -5.0320     1.6440     6.7490 ha         1 Q11       0.136000
     32 H20         -5.1910     3.4260     3.8710 h1         1 Q11       0.042033
     33 H20A        -5.9120     2.2130     4.9380 h1         1 Q11       0.042033
     34 H20B        -4.7050     3.3420     5.5700 h1         1 Q11       0.042033
@<TRIPOS>BOND
     1     1     2 ar
     2     1     6 ar
     3     1    11 1
     4     2     3 ar
     5     3     4 ar
     6     3    12 1
     7     4     5 ar
     8     5     6 ar
     9     5     7 ar
    10     6    10 ar
    11     7     8 ar
    12     8     9 ar
    13     8    13 1
    14     9    10 ar
    15    13    14 ar
    16    13    18 ar
    17    14    15 ar
    18    15    16 ar
    19    16    17 ar
    20    17    18 ar
    21    18    19 1
    22    19    20 1
    23     7    21 1
    24     9    22 1
    25    10    23 1
    26    11    24 1
    27    11    25 1
    28    12    26 1
    29    12    27 1
    30    14    28 1
    31    15    29 1
    32    16    30 1
    33    17    31 1
    34    20    32 1
    35    20    33 1
    36    20    34 1
@<TRIPOS>SUBSTRUCTURE
     1 Q11         1 TEMP              0 ****  ****    0 ROOT
