@<TRIPOS>MOLECULE
molecule
   41    43     1     0     0
SMALL
bcc


@<TRIPOS>ATOM
      1 C1           0.0000     0.0000     0.0000 ca         1 Q12       0.759200
      2 N2           1.3250     0.0000     0.0000 nb         1 Q12      -0.795000
      3 C3           2.0190     0.0000     1.1340 ca         1 Q12       0.946900
      4 N4           1.4440     0.0010     2.3220 nb         1 Q12      -0.776000
      5 C5           0.1070     0.0020     2.4300 ca         1 Q12       0.471600
      6 C6          -0.6730     0.0010     1.2470 ca         1 Q12      -0.316600
      7 C7          -2.0720     0.0020     1.3320 ca         1 Q12      -0.079000
      8 C8          -2.6760     0.0040     2.5510 ca         1 Q12      -0.095300
      9 C9          -1.9160     0.0040     3.7300 cp         1 Q12       0.001000
     10 C10         -0.5320     0.0020     3.6750 ca         1 Q12      -0.178300
     11 N11         -0.7070     0.0050    -1.1840 nv         1 Q12      -1.081500
     12 N12          3.4000    -0.0010     1.0660 nv         1 Q12      -1.028500
     13 C13         -4.1810     0.0050     2.6350 c3         1 Q12      -0.047800
     14 C14         -2.6000     0.0050     5.0450 cp         1 Q12      -0.049000
     15 C15         -3.5200    -0.9950     5.3550 ca         1 Q12      -0.112000
     16 C16         -4.1560    -0.9930     6.5800 ca         1 Q12      -0.194000
     17 C17         -3.8820     0.0030     7.5050 ca         1 Q12       0.121100
     18 C18         -2.9630     1.0050     7.2000 ca         1 Q12       0.115100
     19 C19         -2.3190     1.0040     5.9770 ca         1 Q12      -0.174000
     20 O20         -2.6980     1.9810     8.1090 os         1 Q12      -0.313900
     21 C21         -1.7440     2.9770     7.7300 c3         1 Q12       0.126700
     22 O22         -4.5110     0.0010     8.7090 os         1 Q12      -0.311900
     23 C23         -5.4410    -1.0550     8.9540 c3         1 Q12       0.127700
     24 H7          -2.6700     0.0020     0.4290 ha         1 Q12       0.141000
     25 H10          0.0510     0.0020     4.5890 ha         1 Q12       0.156000
     26 HN11        -0.9660    -0.8600    -1.6160 hn         1 Q12       0.442800
     27 HN1A        -0.9220     0.8730    -1.6350 hn         1 Q12       0.442800
     28 HN12         3.8740     0.6820     0.5100 hn         1 Q12       0.445300
     29 HN1B         3.9260    -0.6730     1.5890 hn         1 Q12       0.445300
     30 H13         -4.5360    -1.0100     2.7670 hc         1 Q12       0.045367
     31 H13A        -4.5930     0.4160     1.7220 hc         1 Q12       0.045367
     32 H13B        -4.4950     0.6090     3.4770 hc         1 Q12       0.045367
     33 H15         -3.7360    -1.7750     4.6340 ha         1 Q12       0.138000
     34 H16         -4.8700    -1.7720     6.8190 ha         1 Q12       0.141000
     35 H19         -1.6050     1.7830     5.7390 ha         1 Q12       0.148000
     36 H21         -0.7900     2.5060     7.5290 h1         1 Q12       0.041367
     37 H21A        -1.6310     3.6930     8.5350 h1         1 Q12       0.041367
     38 H21B        -2.0900     3.4870     6.8390 h1         1 Q12       0.041367
     39 H23         -4.9290    -2.0080     8.8920 h1         1 Q12       0.040700
     40 H23A        -6.2300    -1.0210     8.2140 h1         1 Q12       0.040700
     41 H23B        -5.8670    -0.9390     9.9430 h1         1 Q12       0.040700
@<TRIPOS>BOND
     1     1     2 ar
     2     1     6 ar
     3     1    11 1
     4     2     3 ar
     5     3     4 ar
     6     3    12 1
     7     4     5 ar
     8     5     6 ar
     9     5    10 ar
    10     6     7 ar
    11     7     8 ar
    12     8     9 ar
    13     8    13 1
    14     9    10 ar
    15     9    14 1
    16    14    15 ar
    17    14    19 ar
    18    15    16 ar
    19    16    17 ar
    20    17    18 ar
    21    17    22 1
    22    18    19 ar
    23    18    20 1
    24    20    21 1
    25    22    23 1
    26     7    24 1
    27    10    25 1
    28    11    26 1
    29    11    27 1
    30    12    28 1
    31    12    29 1
    32    13    30 1
    33    13    31 1
    34    13    32 1
    35    15    33 1
    36    16    34 1
    37    19    35 1
    38    21    36 1
    39    21    37 1
    40    21    38 1
    41    23    39 1
    42    23    40 1
    43    23    41 1
@<TRIPOS>SUBSTRUCTURE
     1 Q12         1 TEMP              0 ****  ****    0 ROOT
