@<TRIPOS>MOLECULE
molecule
   53    54     1     0     0
SMALL
bcc


@<TRIPOS>ATOM
      1 N22          0.0000     0.0000     0.0000 nv         1 Q13      -1.081500
      2 C22          1.3900     0.0000     0.0000 ca         1 Q13       0.704200
      3 C23          2.0780     0.0000     1.2080 ca         1 Q13      -0.244300
      4 C24          3.4620    -0.0030     1.1940 ca         1 Q13      -0.039300
      5 C27          4.2460    -0.0020     2.4820 c3         1 Q13      -0.051800
      6 C25          4.1120    -0.0040    -0.0320 ca         1 Q13      -0.257300
      7 N21          2.0460    -0.0080    -1.1490 nb         1 Q13      -0.714000
      8 C26          3.3650    -0.0040    -1.1940 ca         1 Q13       0.424600
      9 C16          4.0640    -0.0120    -2.5290 c3         1 Q13       0.098100
     10 O15          5.4790    -0.0060    -2.3250 os         1 Q13      -0.459600
     11 C13          6.2400    -0.0130    -3.5340 c3         1 Q13       0.117100
     12 C14          6.5080     1.4280    -3.9760 c3         1 Q13      -0.140100
     13 C11          7.5710    -0.7290    -3.2950 c3         1 Q13       0.116500
     14 N12          8.3240    -0.0260    -2.2460 nz         1 Q13      -0.803600
     15 C10          7.3040    -2.1680    -2.8530 c3         1 Q13       0.116400
     16 O09          8.5430    -2.8710    -2.7420 os         1 Q13      -0.461600
     17 C08          8.4050    -4.2330    -2.3330 c3         1 Q13       0.099100
     18 C06          9.7660    -4.8730    -2.2490 ca         1 Q13       0.463600
     19 N01          9.8710    -6.1380    -1.8860 nb         1 Q13      -0.770000
     20 C02         11.0460    -6.7410    -1.8000 ca         1 Q13       0.726200
     21 N02         11.1090    -8.0750    -1.4150 nv         1 Q13      -1.002500
     22 C03         12.2190    -6.0510    -2.0920 ca         1 Q13      -0.310300
     23 C04         12.1410    -4.7250    -2.4750 ca         1 Q13      -0.000300
     24 C05         10.8880    -4.1300    -2.5580 ca         1 Q13      -0.308300
     25 C07         13.3880    -3.9430    -2.8000 c3         1 Q13      -0.051800
     26 H1          -0.5000    -0.8660    -0.0440 hn         1 Q13       0.445300
     27 H2          -0.5000     0.8660     0.0370 hn         1 Q13       0.445300
     28 H3           1.5460    -0.1740     2.1350 ha         1 Q13       0.158000
     29 H4           4.9750     0.7980     2.4600 hc         1 Q13       0.051700
     30 H5           4.7540    -0.9520     2.5950 hc         1 Q13       0.051700
     31 H6           3.5700     0.1480     3.3150 hc         1 Q13       0.051700
     32 H7           5.1840     0.1470    -0.0780 ha         1 Q13       0.123000
     33 H8           3.7770     0.8680    -3.0920 h1         1 Q13       0.061700
     34 H9           3.7820    -0.9010    -3.0790 h1         1 Q13       0.061700
     35 H10          5.6850    -0.5310    -4.3070 h1         1 Q13       0.094700
     36 H11          6.6580     2.0520    -3.1030 hc         1 Q13       0.063367
     37 H12          5.6600     1.7950    -4.5410 hc         1 Q13       0.063367
     38 H13          7.3950     1.4560    -4.5970 hc         1 Q13       0.063367
     39 H14          8.1480    -0.7340    -4.2120 hx         1 Q13       0.127700
     40 H15          7.8440    -0.1170    -1.3730 hn         1 Q13       0.460133
     41 H16          9.2390    -0.4250    -2.1680 hn         1 Q13       0.460133
     42 H18          6.6740    -2.6600    -3.5840 h1         1 Q13       0.073200
     43 H19          6.8040    -2.1630    -1.8910 h1         1 Q13       0.073200
     44 H20          7.9280    -4.2720    -1.3610 h1         1 Q13       0.060200
     45 H21          7.7990    -4.7670    -3.0540 h1         1 Q13       0.060200
     46 H22         11.9950    -8.5350    -1.3460 hn         1 Q13       0.447800
     47 H23         10.2670    -8.5770    -1.2110 hn         1 Q13       0.447800
     48 H24         13.1800    -6.5460    -2.0180 ha         1 Q13       0.147000
     49 H25         10.7940    -3.0930    -2.8550 ha         1 Q13       0.126000
     50 H26         13.4510    -3.7930    -3.8710 hc         1 Q13       0.050700
     51 H27         14.2570    -4.4920    -2.4600 hc         1 Q13       0.050700
     52 H28         13.3510    -2.9810    -2.3020 hc         1 Q13       0.050700
     53 H123         8.3980     0.9440    -2.4820 hn         1 Q13       0.460133
@<TRIPOS>BOND
     1    25    23 1
     2    23    22 ar
     3    23    24 ar
     4    22    20 ar
     5    24    18 ar
     6    20    21 1
     7    20    19 ar
     8    18    19 ar
     9    18    17 1
    10    16    15 1
    11    16    17 1
    12    15    13 1
    13    12    11 1
    14    13    11 1
    15    13    14 1
    16    11    10 1
    17    10     9 1
    18     9     8 1
    19     1     2 1
    20     7     8 ar
    21     7     2 ar
    22     8     6 ar
    23     2     3 ar
    24     6     4 ar
    25     3     4 ar
    26     4     5 1
    27     1    26 1
    28     1    27 1
    29     3    28 1
    30     5    29 1
    31     5    30 1
    32     5    31 1
    33     6    32 1
    34     9    33 1
    35     9    34 1
    36    11    35 1
    37    12    36 1
    38    12    37 1
    39    12    38 1
    40    13    39 1
    41    14    40 1
    42    14    41 1
    43    15    42 1
    44    15    43 1
    45    17    44 1
    46    17    45 1
    47    21    46 1
    48    21    47 1
    49    22    48 1
    50    24    49 1
    51    25    50 1
    52    25    51 1
    53    25    52 1
    54    53    14 1
@<TRIPOS>SUBSTRUCTURE
     1 Q13         1 TEMP              0 ****  ****    0 ROOT
