@<TRIPOS>MOLECULE
Q14
   53    54     1     0     0
SMALL
bcc


@<TRIPOS>ATOM
      1 N22          0.0000     0.0000     0.0000 nv         1 Q14      -0.657500
      2 C22          1.3900     0.0000     0.0000 ca         1 Q14       0.515200
      3 C23          2.0810     0.0000     1.2090 ca         1 Q14      -0.202300
      4 C24          3.4630     0.0000     1.1930 ca         1 Q14      -0.039300
      5 C27          4.2480    -0.0010     2.4800 c3         1 Q14       0.059200
      6 C25          4.1130    -0.0010    -0.0340 ca         1 Q14      -0.208300
      7 N21          2.0460    -0.0060    -1.1500 nb         1 Q14      -0.594000
      8 C26          3.3650    -0.0010    -1.1950 ca         1 Q14       0.330600
      9 C28          4.0650    -0.0010    -2.5300 c3         1 Q14       0.172100
     10 O29          5.4790    -0.0000    -2.3260 os         1 Q14      -0.392600
     11 C12          6.2400    -0.0000    -3.5360 c3         1 Q14       0.171100
     12 C13          6.5110    -1.4430    -3.9670 c3         1 Q14      -0.082200
     13 N14          5.2410    -2.1000    -4.3070 nz         1 Q14       0.060400
     14 C11          7.5680     0.7210    -3.3030 c3         1 Q14      -0.032400
     15 C10          7.3020     2.1950    -2.9930 c3         1 Q14       0.219400
     16 O09          8.5430     2.8690    -2.7750 os         1 Q14      -0.412600
     17 C08          8.4040     4.2600    -2.4760 c3         1 Q14       0.174100
     18 C06          9.7680     4.8650    -2.2650 ca         1 Q14       0.409600
     19 N01          9.8720     6.1480    -1.9710 nb         1 Q14      -0.657000
     20 C02         11.0490     6.7220    -1.7780 ca         1 Q14       0.520200
     21 N02         11.1130     8.0770    -1.4710 nv         1 Q14      -0.525500
     22 C03         12.2230     5.9830    -1.8810 ca         1 Q14      -0.304300
     23 C05         10.8910     4.0710    -2.3780 ca         1 Q14      -0.283300
     24 C04         12.1450     4.6370    -2.1880 ca         1 Q14      -0.001300
     25 C07         13.3940     3.8010    -2.3080 c3         1 Q14       0.060200
     26 H1          -0.5000    -0.8670    -0.0030 hn         1 Q14       0.285300
     27 H2          -0.5000     0.8670    -0.0120 hn         1 Q14       0.285300
     28 H3           1.5490     0.1760     2.1360 ha         1 Q14       0.134000
     29 H4           5.0690    -0.7030     2.4020 hc         1 Q14       0.018367
     30 H5           3.6000    -0.2920     3.2980 hc         1 Q14       0.018367
     31 H6           4.6390     0.9920     2.6650 hc         1 Q14       0.018367
     32 H7           5.1950     0.0010    -0.0800 ha         1 Q14       0.129000
     33 H8           3.7800     0.8830    -3.0870 h1         1 Q14      -0.015300
     34 H9           3.7800    -0.8860    -3.0860 h1         1 Q14      -0.015300
     35 H10          5.6830     0.5100    -4.3130 h1         1 Q14       0.027700
     36 H11          6.9890    -1.9790    -3.1560 hx         1 Q14       0.093700
     37 H12          7.1620    -1.4450    -4.8340 hx         1 Q14       0.093700
     38 H13          4.7850    -2.3980    -3.4680 hn         1 Q14       0.231800
     39 H14          4.6520    -1.4550    -4.7960 hn         1 Q14       0.231800
     40 H16          8.1820     0.6440    -4.1920 hc         1 Q14       0.042700
     41 H17          8.0850     0.2640    -2.4670 hc         1 Q14       0.042700
     42 H18          6.7840     2.6510    -3.8280 h1         1 Q14      -0.000300
     43 H19          6.6890     2.2710    -2.1030 h1         1 Q14      -0.000300
     44 H20          7.8130     4.3780    -1.5750 h1         1 Q14       0.007700
     45 H21          7.9100     4.7590    -3.3000 h1         1 Q14       0.007700
     46 H22         10.2710     8.6140    -1.3990 hn         1 Q14       0.272800
     47 H23         12.0000     8.5140    -1.3160 hn         1 Q14       0.272800
     48 H24         13.1810     6.4880    -1.8970 ha         1 Q14       0.123000
     49 H25         10.7890     2.9960    -2.4600 ha         1 Q14       0.127000
     50 H26         13.1220     2.7750    -2.5230 hc         1 Q14       0.011367
     51 H27         14.0110     4.1870    -3.1100 hc         1 Q14       0.011367
     52 H28         13.9450     3.8400    -1.3760 hc         1 Q14       0.011367
     53 H143         5.4160    -2.8600    -4.9340 hn         1 Q14       0.231800
@<TRIPOS>BOND
     1     1     2 1   
     2     1    26 1   
     3     1    27 1   
     4     2     3 ar  
     5     2     7 ar  
     6     3     4 ar  
     7     3    28 1   
     8     4     5 1   
     9     4     6 ar  
    10     5    29 1   
    11     5    30 1   
    12     5    31 1   
    13     6     8 ar  
    14     6    32 1   
    15     7     8 ar  
    16     8     9 1   
    17     9    10 1   
    18     9    33 1   
    19     9    34 1   
    20    10    11 1   
    21    11    12 1   
    22    11    14 1   
    23    11    35 1   
    24    12    13 1   
    25    12    36 1   
    26    12    37 1   
    27    13    38 1   
    28    13    39 1   
    29    13    53 1   
    30    14    15 1   
    31    14    40 1   
    32    14    41 1   
    33    15    16 1   
    34    15    42 1   
    35    15    43 1   
    36    16    17 1   
    37    17    18 1   
    38    17    44 1   
    39    17    45 1   
    40    18    19 ar  
    41    18    23 ar  
    42    19    20 ar  
    43    20    21 1   
    44    20    22 ar  
    45    21    46 1   
    46    21    47 1   
    47    22    24 ar  
    48    22    48 1   
    49    23    24 ar  
    50    23    49 1   
    51    24    25 1   
    52    25    50 1   
    53    25    51 1   
    54    25    52 1   
@<TRIPOS>SUBSTRUCTURE
     1 Q14         1 TEMP              0 ****  ****    0 ROOT
