@<TRIPOS>MOLECULE
molecule
   53    54     1     0     0
SMALL
bcc


@<TRIPOS>ATOM
      1 N22          0.0000     0.0000     0.0000 nv         1 Q14      -1.080500
      2 C22          1.3900     0.0000     0.0000 ca         1 Q14       0.697200
      3 C23          2.0810     0.0000     1.2090 ca         1 Q14      -0.236300
      4 C24          3.4630     0.0000     1.1930 ca         1 Q14      -0.036300
      5 C27          4.2480    -0.0010     2.4800 c3         1 Q14      -0.053800
      6 C25          4.1130    -0.0010    -0.0340 ca         1 Q14      -0.238300
      7 N21          2.0460    -0.0060    -1.1500 nb         1 Q14      -0.726000
      8 C26          3.3650    -0.0010    -1.1950 ca         1 Q14       0.400600
      9 C28          4.0650    -0.0010    -2.5300 c3         1 Q14       0.089100
     10 O29          5.4790    -0.0000    -2.3260 os         1 Q14      -0.409600
     11 C12          6.2400    -0.0000    -3.5360 c3         1 Q14       0.123100
     12 C13          6.5110    -1.4430    -3.9670 c3         1 Q14       0.065800
     13 N14          5.2410    -2.1000    -4.3070 nz         1 Q14      -0.814600
     14 C11          7.5680     0.7210    -3.3030 c3         1 Q14      -0.076400
     15 C10          7.3020     2.1950    -2.9930 c3         1 Q14       0.149400
     16 O09          8.5430     2.8690    -2.7750 os         1 Q14      -0.428600
     17 C08          8.4040     4.2600    -2.4760 c3         1 Q14       0.096100
     18 C06          9.7680     4.8650    -2.2650 ca         1 Q14       0.466600
     19 N01          9.8720     6.1480    -1.9710 nb         1 Q14      -0.775000
     20 C02         11.0490     6.7220    -1.7780 ca         1 Q14       0.718200
     21 N02         11.1130     8.0770    -1.4710 nv         1 Q14      -1.009500
     22 C03         12.2230     5.9830    -1.8810 ca         1 Q14      -0.319300
     23 C05         10.8910     4.0710    -2.3780 ca         1 Q14      -0.295300
     24 C04         12.1450     4.6370    -2.1880 ca         1 Q14      -0.005300
     25 C07         13.3940     3.8010    -2.3080 c3         1 Q14      -0.050800
     26 H1          -0.5000    -0.8670    -0.0030 hn         1 Q14       0.445300
     27 H2          -0.5000     0.8670    -0.0120 hn         1 Q14       0.445300
     28 H3           1.5490     0.1760     2.1360 ha         1 Q14       0.161000
     29 H4           5.0690    -0.7030     2.4020 hc         1 Q14       0.056367
     30 H5           3.6000    -0.2920     3.2980 hc         1 Q14       0.056367
     31 H6           4.6390     0.9920     2.6650 hc         1 Q14       0.056367
     32 H7           5.1950     0.0010    -0.0800 ha         1 Q14       0.152000
     33 H8           3.7800     0.8830    -3.0870 h1         1 Q14       0.025200
     34 H9           3.7800    -0.8860    -3.0860 h1         1 Q14       0.025200
     35 H10          5.6830     0.5100    -4.3130 h1         1 Q14       0.057700
     36 H11          6.9890    -1.9790    -3.1560 hx         1 Q14       0.120200
     37 H12          7.1620    -1.4450    -4.8340 hx         1 Q14       0.120200
     38 H13          4.7850    -2.3980    -3.4680 hn         1 Q14       0.459467
     39 H14          4.6520    -1.4550    -4.7960 hn         1 Q14       0.459467
     40 H16          8.1820     0.6440    -4.1920 hc         1 Q14       0.078200
     41 H17          8.0850     0.2640    -2.4670 hc         1 Q14       0.078200
     42 H18          6.7840     2.6510    -3.8280 h1         1 Q14       0.035700
     43 H19          6.6890     2.2710    -2.1030 h1         1 Q14       0.035700
     44 H20          7.8130     4.3780    -1.5750 h1         1 Q14       0.050200
     45 H21          7.9100     4.7590    -3.3000 h1         1 Q14       0.050200
     46 H22         10.2710     8.6140    -1.3990 hn         1 Q14       0.443300
     47 H23         12.0000     8.5140    -1.3160 hn         1 Q14       0.443300
     48 H24         13.1810     6.4880    -1.8970 ha         1 Q14       0.141000
     49 H25         10.7890     2.9960    -2.4600 ha         1 Q14       0.145000
     50 H26         13.1220     2.7750    -2.5230 hc         1 Q14       0.049033
     51 H27         14.0110     4.1870    -3.1100 hc         1 Q14       0.049033
     52 H28         13.9450     3.8400    -1.3760 hc         1 Q14       0.049033
     53 H143         5.4160    -2.8600    -4.9340 hn         1 Q14       0.459467
@<TRIPOS>BOND
     1     5     4 1
     2     4     3 ar
     3     4     6 ar
     4     3     2 ar
     5     6     8 ar
     6     2     1 1
     7     2     7 ar
     8     8     7 ar
     9     8     9 1
    10    14    11 1
    11    14    15 1
    12    10     9 1
    13    10    11 1
    14    11    12 1
    15    15    16 1
    16    12    13 1
    17    16    17 1
    18    21    20 1
    19    20    19 ar
    20    20    22 ar
    21    19    18 ar
    22    17    18 1
    23    22    24 ar
    24    18    23 ar
    25    24    23 ar
    26    24    25 1
    27     1    26 1
    28     1    27 1
    29     3    28 1
    30     5    29 1
    31     5    30 1
    32     5    31 1
    33     6    32 1
    34     9    33 1
    35     9    34 1
    36    11    35 1
    37    12    36 1
    38    12    37 1
    39    13    38 1
    40    13    39 1
    41    14    40 1
    42    14    41 1
    43    15    42 1
    44    15    43 1
    45    17    44 1
    46    17    45 1
    47    21    46 1
    48    21    47 1
    49    22    48 1
    50    23    49 1
    51    25    50 1
    52    25    51 1
    53    25    52 1
    54    53    13 1
@<TRIPOS>SUBSTRUCTURE
     1 Q14         1 TEMP              0 ****  ****    0 ROOT
