@<TRIPOS>MOLECULE
Q15
   49    51     1     0     0
SMALL
bcc


@<TRIPOS>ATOM
      1 N02          0.0000     0.0000     0.0000 nv         1 Q15      -0.540500
      2 C02          1.3900     0.0000     0.0000 ca         1 Q15       0.515200
      3 C03          2.0800     0.0000     1.2080 ca         1 Q15      -0.306300
      4 C04          3.4620    -0.0000     1.1940 ca         1 Q15      -0.006300
      5 C07          4.2470    -0.0010     2.4800 c3         1 Q15       0.060200
      6 N01          2.0460    -0.0050    -1.1500 nb         1 Q15      -0.652000
      7 C06          3.3640    -0.0050    -1.1940 ca         1 Q15       0.412600
      8 C05          4.1120     0.0000    -0.0340 ca         1 Q15      -0.272300
      9 C08          4.0640    -0.0110    -2.5290 c3         1 Q15       0.159100
     10 O09          5.4790    -0.0090    -2.3260 os         1 Q15      -0.306900
     11 C11          6.2620    -0.0140    -3.4360 ca         1 Q15       0.192100
     12 C16          7.6420    -0.0130    -3.3120 ca         1 Q15      -0.190000
     13 C15          8.4380    -0.0180    -4.4470 ca         1 Q15       0.192100
     14 C14          7.8520    -0.0240    -5.7040 ca         1 Q15      -0.256000
     15 C13          6.4760    -0.0240    -5.8260 ca         1 Q15      -0.010000
     16 C12          5.6800    -0.0250    -4.6970 ca         1 Q15      -0.255000
     17 O28          9.7920    -0.0170    -4.3280 os         1 Q15      -0.305900
     18 C27         10.5490    -0.0220    -5.5400 c3         1 Q15       0.204400
     19 C24         12.0440    -0.0200    -5.2080 c3         1 Q15      -0.058700
     20 C23         12.4120     1.2950    -4.5140 c3         1 Q15      -0.021900
     21 C22         13.9170     1.3170    -4.2390 c3         1 Q15       0.148800
     22 N21         14.6490     1.1900    -5.5060 n7         1 Q15      -0.580200
     23 C26         14.3470    -0.0870    -6.1670 c3         1 Q15       0.148800
     24 C25         12.8540    -0.1510    -6.4990 c3         1 Q15      -0.021900
     25 H1          -0.5000     0.1930     0.8450 hn         1 Q15       0.269800
     26 H2          -0.5000    -0.2300    -0.8360 hn         1 Q15       0.269800
     27 H3           1.5480    -0.1720     2.1360 ha         1 Q15       0.119000
     28 H4           4.9300     0.8400     2.4870 hc         1 Q15       0.010367
     29 H5           4.8090    -0.9230     2.5600 hc         1 Q15       0.010367
     30 H6           3.5650     0.0810     3.3190 hc         1 Q15       0.010367
     31 H7           5.1940     0.0000    -0.0800 ha         1 Q15       0.136000
     32 H8           3.7800    -0.8980    -3.0820 h1         1 Q15       0.017700
     33 H9           3.7790     0.8710    -3.0900 h1         1 Q15       0.017700
     34 H10          8.0980    -0.0080    -2.3290 ha         1 Q15       0.128000
     35 H11          8.4730    -0.0250    -6.5910 ha         1 Q15       0.122000
     36 H12          6.0200    -0.0310    -6.8090 ha         1 Q15       0.098000
     37 H13          4.6010    -0.0250    -4.7950 ha         1 Q15       0.124000
     38 H14         10.3070     0.8600    -6.1200 h1         1 Q15       0.005200
     39 H15         10.3080    -0.9090    -6.1130 h1         1 Q15       0.005200
     40 H16         12.2750    -0.8500    -4.5510 hc         1 Q15       0.036700
     41 H17         11.8730     1.3720    -3.5780 hc         1 Q15       0.024200
     42 H18         12.1500     2.1270    -5.1570 hc         1 Q15       0.024200
     43 H19         14.1760     0.4900    -3.5890 h1         1 Q15       0.005450
     44 H20         14.1820     2.2540    -3.7630 h1         1 Q15       0.005450
     45 H21         15.6320     1.2510    -5.3310 hn         1 Q15       0.250800
     46 H23         14.9230    -0.1640    -7.0810 h1         1 Q15       0.005450
     47 H24         14.6030    -0.9050    -5.5040 h1         1 Q15       0.005450
     48 H25         12.5990     0.6610    -7.1700 hc         1 Q15       0.024200
     49 H26         12.6300    -1.1000    -6.9710 hc         1 Q15       0.024200
@<TRIPOS>BOND
     1     1     2 1   
     2     1    25 1   
     3     1    26 1   
     4     2     3 ar  
     5     2     6 ar  
     6     3     4 ar  
     7     3    27 1   
     8     4     5 1   
     9     4     8 ar  
    10     5    28 1   
    11     5    29 1   
    12     5    30 1   
    13     6     7 ar  
    14     7     8 ar  
    15     7     9 1   
    16     8    31 1   
    17     9    10 1   
    18     9    32 1   
    19     9    33 1   
    20    10    11 1   
    21    11    12 ar  
    22    11    16 ar  
    23    12    13 ar  
    24    12    34 1   
    25    13    14 ar  
    26    13    17 1   
    27    14    15 ar  
    28    14    35 1   
    29    15    16 ar  
    30    15    36 1   
    31    16    37 1   
    32    17    18 1   
    33    18    19 1   
    34    18    38 1   
    35    18    39 1   
    36    19    20 1   
    37    19    24 1   
    38    19    40 1   
    39    20    21 1   
    40    20    41 1   
    41    20    42 1   
    42    21    22 1   
    43    21    43 1   
    44    21    44 1   
    45    22    23 1   
    46    22    45 1   
    47    23    24 1   
    48    23    46 1   
    49    23    47 1   
    50    24    48 1   
    51    24    49 1   
@<TRIPOS>SUBSTRUCTURE
     1 Q15         1 TEMP              0 ****  ****    0 ROOT
