@<TRIPOS>MOLECULE
molecule
   53    55     1     0     0
SMALL
bcc


@<TRIPOS>ATOM
      1 N22          0.0000     0.0000     0.0000 nv         1 Q16      -1.029500
      2 C22          1.3900     0.0000     0.0000 ca         1 Q16       0.705200
      3 C23          2.0800     0.0000     1.2080 ca         1 Q16      -0.315300
      4 C24          3.4630    -0.0010     1.1930 ca         1 Q16      -0.016300
      5 C27          4.2470     0.0010     2.4800 c3         1 Q16      -0.049800
      6 C25          4.1120    -0.0010    -0.0340 ca         1 Q16      -0.278300
      7 N21          2.0460    -0.0080    -1.1510 nb         1 Q16      -0.764000
      8 C26          3.3650    -0.0030    -1.1950 ca         1 Q16       0.464600
      9 C12          4.0640    -0.0040    -2.5290 c3         1 Q16       0.092100
     10 O11          5.4790    -0.0050    -2.3270 os         1 Q16      -0.430600
     11 C2'          8.6480    -0.4520    -3.6160 c3         1 Q16       0.148500
     12 C5'          6.5570    -1.4540    -3.9680 c3         1 Q16       0.109800
     13 N1'          7.9320    -1.3860    -4.5240 n7         1 Q16      -0.784200
     14 C3'          7.6150     0.6520    -3.3040 c3         1 Q16      -0.077400
     15 C10          9.8700     0.1420    -4.3180 c3         1 Q16       0.152400
     16 C4'          6.2400    -0.0070    -3.5360 c3         1 Q16       0.142100
     17 O09         10.8270    -0.8910    -4.5630 os         1 Q16      -0.435600
     18 C08         12.0140    -0.4390    -5.2180 c3         1 Q16       0.095100
     19 C06         12.9480    -1.6040    -5.4250 ca         1 Q16       0.473600
     20 N01         14.1110    -1.4090    -6.0170 nb         1 Q16      -0.775000
     21 C02         14.9620    -2.4030    -6.2200 ca         1 Q16       0.710200
     22 N02         16.1770    -2.1520    -6.8470 nv         1 Q16      -1.016500
     23 C03         14.6510    -3.6950    -5.8090 ca         1 Q16      -0.325300
     24 C04         13.4390    -3.9300    -5.1870 ca         1 Q16      -0.010300
     25 C05         12.5770    -2.8600    -4.9890 ca         1 Q16      -0.287300
     26 C07         13.0650    -5.3160    -4.7270 c3         1 Q16      -0.049800
     27 H021        16.3990    -1.2260    -7.1540 hn         1 Q16       0.438300
     28 H022        16.8200    -2.9020    -7.0090 hn         1 Q16       0.438300
     29 H03         15.3480    -4.5070    -5.9780 ha         1 Q16       0.132000
     30 H071        12.1160    -5.5990    -5.1680 hc         1 Q16       0.046367
     31 H072        12.9790    -5.3280    -3.6470 hc         1 Q16       0.046367
     32 H073        13.8300    -6.0180    -5.0360 hc         1 Q16       0.046367
     33 H05         11.6200    -3.0110    -4.5040 ha         1 Q16       0.155000
     34 H081        11.7550    -0.0090    -6.1780 h1         1 Q16       0.046200
     35 H082        12.5010     0.3100    -4.6060 h1         1 Q16       0.046200
     36 H101        10.3130     0.9030    -3.6870 h1         1 Q16       0.033200
     37 H102         9.5660     0.5840    -5.2590 h1         1 Q16       0.033200
     38 H2'          8.9380    -0.9630    -2.7060 h1         1 Q16       0.045700
     39 H1'          8.3570    -2.2910    -4.4740 hn         1 Q16       0.359800
     40 H3'1         7.7480     1.4900    -3.9770 hc         1 Q16       0.062200
     41 H3'2         7.7090     0.9710    -2.2730 hc         1 Q16       0.062200
     42 H5'1         5.8590    -1.7800    -4.7300 h1         1 Q16       0.050200
     43 H5'2         6.5290    -2.1170    -3.1120 h1         1 Q16       0.050200
     44 H4'          5.7060     0.5110    -4.3240 h1         1 Q16       0.051700
     45 H121         3.7800     0.8800    -3.0870 h1         1 Q16       0.047700
     46 H122         3.7790    -0.8890    -3.0860 h1         1 Q16       0.047700
     47 H25          5.1950     0.0000    -0.0800 ha         1 Q16       0.156000
     48 H271         3.5940    -0.2720     3.3010 hc         1 Q16       0.047033
     49 H272         4.6530     0.9900     2.6550 hc         1 Q16       0.047033
     50 H273         5.0570    -0.7150     2.4100 hc         1 Q16       0.047033
     51 H23          1.5480     0.1770     2.1350 ha         1 Q16       0.136000
     52 H221        -0.5000     0.4320    -0.7520 hn         1 Q16       0.438300
     53 H222        -0.5000    -0.4100     0.7640 hn         1 Q16       0.438300
@<TRIPOS>BOND
     1    22    21 1
     2    21    20 ar
     3    21    23 ar
     4    20    19 ar
     5    23    24 ar
     6    24    26 1
     7    24    25 ar
     8    25    19 ar
     9    19    18 1
    10    18    17 1
    11    17    15 1
    12    15    11 1
    13    11    13 1
    14    11    14 1
    15    13    12 1
    16    12    16 1
    17    14    16 1
    18    16    10 1
    19    10     9 1
    20     9     8 1
    21     8     6 ar
    22     8     7 ar
    23     6     4 ar
    24     4     5 1
    25     4     3 ar
    26     3     2 ar
    27     7     2 ar
    28     2     1 1
    29    22    27 1
    30    22    28 1
    31    23    29 1
    32    26    30 1
    33    26    31 1
    34    26    32 1
    35    25    33 1
    36    18    34 1
    37    18    35 1
    38    15    36 1
    39    15    37 1
    40    11    38 1
    41    13    39 1
    42    14    40 1
    43    14    41 1
    44    12    42 1
    45    12    43 1
    46    16    44 1
    47     9    45 1
    48     9    46 1
    49     6    47 1
    50     5    48 1
    51     5    49 1
    52     5    50 1
    53     3    51 1
    54     1    52 1
    55     1    53 1
@<TRIPOS>SUBSTRUCTURE
     1 Q16         1 TEMP              0 ****  ****    0 ROOT
