@<TRIPOS>MOLECULE
Q16
   53    55     1     0     0
SMALL
bcc


@<TRIPOS>ATOM
      1 N22          0.0000     0.0000     0.0000 nv         1 Q16      -0.558500
      2 C22          1.3900     0.0000     0.0000 ca         1 Q16       0.511200
      3 C23          2.0800     0.0000     1.2080 ca         1 Q16      -0.298300
      4 C24          3.4630    -0.0010     1.1930 ca         1 Q16      -0.014300
      5 C27          4.2470     0.0010     2.4800 c3         1 Q16       0.061200
      6 C25          4.1120    -0.0010    -0.0340 ca         1 Q16      -0.262300
      7 N21          2.0460    -0.0080    -1.1510 nb         1 Q16      -0.645000
      8 C26          3.3650    -0.0030    -1.1950 ca         1 Q16       0.408600
      9 C12          4.0640    -0.0040    -2.5290 c3         1 Q16       0.165100
     10 O11          5.4790    -0.0050    -2.3270 os         1 Q16      -0.410600
     11 C2'          8.6480    -0.4520    -3.6160 c3         1 Q16       0.109500
     12 C5'          6.5570    -1.4540    -3.9680 c3         1 Q16       0.107800
     13 N1'          7.9320    -1.3860    -4.5240 n7         1 Q16      -0.572200
     14 C3'          7.6150     0.6520    -3.3040 c3         1 Q16      -0.029400
     15 C10          9.8700     0.1420    -4.3180 c3         1 Q16       0.220400
     16 C4'          6.2400    -0.0070    -3.5360 c3         1 Q16       0.178100
     17 O09         10.8270    -0.8910    -4.5630 os         1 Q16      -0.420600
     18 C08         12.0140    -0.4390    -5.2180 c3         1 Q16       0.170100
     19 C06         12.9480    -1.6040    -5.4250 ca         1 Q16       0.418600
     20 N01         14.1110    -1.4090    -6.0170 nb         1 Q16      -0.657000
     21 C02         14.9620    -2.4030    -6.2200 ca         1 Q16       0.514200
     22 N02         16.1770    -2.1520    -6.8470 nv         1 Q16      -0.537500
     23 C03         14.6510    -3.6950    -5.8090 ca         1 Q16      -0.310300
     24 C04         13.4390    -3.9300    -5.1870 ca         1 Q16      -0.008300
     25 C05         12.5770    -2.8600    -4.9890 ca         1 Q16      -0.272300
     26 C07         13.0650    -5.3160    -4.7270 c3         1 Q16       0.061200
     27 H021        16.3990    -1.2260    -7.1540 hn         1 Q16       0.269300
     28 H022        16.8200    -2.9020    -7.0090 hn         1 Q16       0.269300
     29 H03         15.3480    -4.5070    -5.9780 ha         1 Q16       0.118000
     30 H071        12.1160    -5.5990    -5.1680 hc         1 Q16       0.009033
     31 H072        12.9790    -5.3280    -3.6470 hc         1 Q16       0.009033
     32 H073        13.8300    -6.0180    -5.0360 hc         1 Q16       0.009033
     33 H05         11.6200    -3.0110    -4.5040 ha         1 Q16       0.135000
     34 H081        11.7550    -0.0090    -6.1780 h1         1 Q16       0.005700
     35 H082        12.5010     0.3100    -4.6060 h1         1 Q16       0.005700
     36 H101        10.3130     0.9030    -3.6870 h1         1 Q16      -0.001800
     37 H102         9.5660     0.5840    -5.2590 h1         1 Q16      -0.001800
     38 H2'          8.9380    -0.9630    -2.7060 h1         1 Q16       0.022700
     39 H1'          8.3570    -2.2910    -4.4740 hn         1 Q16       0.262800
     40 H3'1         7.7480     1.4900    -3.9770 hc         1 Q16       0.029700
     41 H3'2         7.7090     0.9710    -2.2730 hc         1 Q16       0.029700
     42 H5'1         5.8590    -1.7800    -4.7300 h1         1 Q16       0.019700
     43 H5'2         6.5290    -2.1170    -3.1120 h1         1 Q16       0.019700
     44 H4'          5.7060     0.5110    -4.3240 h1         1 Q16       0.019700
     45 H121         3.7800     0.8800    -3.0870 h1         1 Q16       0.007700
     46 H122         3.7790    -0.8890    -3.0860 h1         1 Q16       0.007700
     47 H25          5.1950     0.0000    -0.0800 ha         1 Q16       0.135000
     48 H271         3.5940    -0.2720     3.3010 hc         1 Q16       0.010033
     49 H272         4.6530     0.9900     2.6550 hc         1 Q16       0.010033
     50 H273         5.0570    -0.7150     2.4100 hc         1 Q16       0.010033
     51 H23          1.5480     0.1770     2.1350 ha         1 Q16       0.119000
     52 H221        -0.5000     0.4320    -0.7520 hn         1 Q16       0.270300
     53 H222        -0.5000    -0.4100     0.7640 hn         1 Q16       0.270300
@<TRIPOS>BOND
     1     1     2 1   
     2     1    52 1   
     3     1    53 1   
     4     2     3 ar  
     5     2     7 ar  
     6     3     4 ar  
     7     3    51 1   
     8     4     5 1   
     9     4     6 ar  
    10     5    48 1   
    11     5    49 1   
    12     5    50 1   
    13     6     8 ar  
    14     6    47 1   
    15     7     8 ar  
    16     8     9 1   
    17     9    10 1   
    18     9    45 1   
    19     9    46 1   
    20    10    16 1   
    21    11    13 1   
    22    11    14 1   
    23    11    15 1   
    24    11    38 1   
    25    12    13 1   
    26    12    16 1   
    27    12    42 1   
    28    12    43 1   
    29    13    39 1   
    30    14    16 1   
    31    14    40 1   
    32    14    41 1   
    33    15    17 1   
    34    15    36 1   
    35    15    37 1   
    36    16    44 1   
    37    17    18 1   
    38    18    19 1   
    39    18    34 1   
    40    18    35 1   
    41    19    20 ar  
    42    19    25 ar  
    43    20    21 ar  
    44    21    22 1   
    45    21    23 ar  
    46    22    27 1   
    47    22    28 1   
    48    23    24 ar  
    49    23    29 1   
    50    24    25 ar  
    51    24    26 1   
    52    25    33 1   
    53    26    30 1   
    54    26    31 1   
    55    26    32 1   
@<TRIPOS>SUBSTRUCTURE
     1 Q16         1 TEMP              0 ****  ****    0 ROOT
