@<TRIPOS>MOLECULE
Q17
   41    43     1     0     0
SMALL
bcc


@<TRIPOS>ATOM
      1 C1           0.0000     0.0000     0.0000 ca         1 Q17      -0.219000
      2 C2           1.3820     0.0000     0.0000 ca         1 Q17      -0.027000
      3 C3           2.0810     0.0000     1.1950 ca         1 Q17      -0.166000
      4 C4           1.4030     0.0000     2.3970 ca         1 Q17      -0.029000
      5 C5           0.0090     0.0000     2.4090 cp         1 Q17      -0.215500
      6 C6          -0.6950     0.0000     1.2000 ca         1 Q17       0.206100
      7 O7          -2.0520     0.0010     1.2010 oh         1 Q17      -0.432100
      8 C8          -0.7230     0.0000     3.6960 cp         1 Q17       0.716500
      9 N9          -0.0240    -0.0010     4.8300 nb         1 Q17      -0.717000
     10 C10         -0.6230    -0.0010     6.0110 ca         1 Q17       0.549200
     11 C11         -2.0390     0.0000     6.0470 ca         1 Q17      -0.281600
     12 C12         -2.7430     0.0010     4.8170 ca         1 Q17       0.444600
     13 N13         -2.0440     0.0060     3.6740 nb         1 Q17      -0.610000
     14 C14         -4.1450     0.0010     4.8280 ca         1 Q17      -0.137300
     15 C15         -4.8080     0.0010     6.0190 ca         1 Q17      -0.085000
     16 C16         -4.1150     0.0000     7.2260 ca         1 Q17      -0.125000
     17 C17         -2.7500     0.0000     7.2510 ca         1 Q17      -0.104000
     18 N18          0.1140    -0.0020     7.1770 nu         1 Q17      -0.519900
     19 C19          1.5780    -0.0030     7.1180 c3         1 Q17       0.186800
     20 C20          2.1450    -0.0040     8.5400 c3         1 Q17      -0.052400
     21 C21          3.6730    -0.0050     8.4780 c3         1 Q17      -0.045200
     22 N22          4.2180    -0.0060     9.8440 nz         1 Q17       0.085400
     23 H1          -0.5410     0.0000    -0.9390 ha         1 Q17       0.117000
     24 H2           1.9210     0.0000    -0.9400 ha         1 Q17       0.104000
     25 H3           3.1640    -0.0000     1.1860 ha         1 Q17       0.105000
     26 H4           1.9540    -0.0000     3.3290 ha         1 Q17       0.106000
     27 HO7         -2.3680     0.1020     0.3180 ho         1 Q17       0.395000
     28 H14         -4.7920    -0.0010     3.9600 ha         1 Q17       0.127000
     29 H15         -5.8910    -0.0010     6.0400 ha         1 Q17       0.110000
     30 H16         -4.7360     0.0010     8.1130 ha         1 Q17       0.108000
     31 H17         -2.5630    -0.0000     8.3180 ha         1 Q17       0.113000
     32 HN18        -0.3510    -0.0160     8.0630 hn         1 Q17       0.301800
     33 H19          1.9180    -0.8880     6.5930 h1         1 Q17       0.034200
     34 H19A         1.9190     0.8810     6.5940 h1         1 Q17       0.034200
     35 H20          1.8050     0.8810     9.0650 hc         1 Q17       0.035200
     36 H20A         1.8040    -0.8890     9.0640 hc         1 Q17       0.035200
     37 H21          4.0140     0.8790     7.9540 hx         1 Q17       0.089700
     38 H21A         4.0130    -0.8900     7.9530 hx         1 Q17       0.089700
     39 HN22         3.9780    -0.8650    10.2980 hn         1 Q17       0.224467
     40 HN2A         3.8330     0.7620    10.3570 hn         1 Q17       0.224467
     41 H223         5.2140     0.0840     9.8050 hn         1 Q17       0.224467
@<TRIPOS>BOND
     1     1     2 ar  
     2     1     6 ar  
     3     1    23 1   
     4     2     3 ar  
     5     2    24 1   
     6     3     4 ar  
     7     3    25 1   
     8     4     5 ar  
     9     4    26 1   
    10     5     6 ar  
    11     5     8 1   
    12     6     7 1   
    13     7    27 1   
    14     8     9 ar  
    15     8    13 ar  
    16     9    10 ar  
    17    10    11 ar  
    18    10    18 1   
    19    11    12 ar  
    20    11    17 ar  
    21    12    13 ar  
    22    12    14 ar  
    23    14    15 ar  
    24    14    28 1   
    25    15    16 ar  
    26    15    29 1   
    27    16    17 ar  
    28    16    30 1   
    29    17    31 1   
    30    18    19 1   
    31    18    32 1   
    32    19    20 1   
    33    19    33 1   
    34    19    34 1   
    35    20    21 1   
    36    20    35 1   
    37    20    36 1   
    38    21    22 1   
    39    21    37 1   
    40    21    38 1   
    41    22    39 1   
    42    22    40 1   
    43    22    41 1   
@<TRIPOS>SUBSTRUCTURE
     1 Q17         1 TEMP              0 ****  ****    0 ROOT
