@<TRIPOS>MOLECULE
Q18
   53    57     1     0     0
SMALL
bcc


@<TRIPOS>ATOM
      1 C1           0.0000     0.0000     0.0000 c3         1 Q18      -0.024900
      2 C2           1.4590     0.0000     0.0000 c3         1 Q18      -0.030900
      3 C3           2.0520     0.0000     1.4210 c3         1 Q18       0.147800
      4 N4           2.0380     1.3540     1.9190 n3         1 Q18      -0.529600
      5 C5           0.8530     1.6700     2.7460 c3         1 Q18       0.147800
      6 C6          -0.4580     1.0980     2.1780 c3         1 Q18      -0.030900
      7 C7          -0.5710     1.2610     0.6850 c3         1 Q18      -0.024900
      8 C8           3.2810     1.6640     2.6380 c3         1 Q18       0.226100
      9 C9           3.3400     3.1420     2.9270 ca         1 Q18      -0.159300
     10 C10          2.8060     3.6400     4.1070 ca         1 Q18       0.181100
     11 C11          2.8710     5.0220     4.3560 ca         1 Q18      -0.313600
     12 C12          3.4640     5.8780     3.4280 ca         1 Q18       0.053000
     13 C13          3.9860     5.3720     2.2710 ca         1 Q18      -0.232000
     14 C14          3.9300     4.0040     2.0170 ca         1 Q18       0.220100
     15 O15          2.1900     3.0400     5.1480 os         1 Q18      -0.178200
     16 C16          1.8300     3.9380     6.0960 cc         1 Q18      -0.108100
     17 C17          2.2310     5.2310     5.6660 c          1 Q18       0.637900
     18 C18          1.1930     3.6500     7.2640 cf         1 Q18       0.067000
     19 C19          0.8380     2.2680     7.5820 cd         1 Q18      -0.154200
     20 C20          0.1510     1.7870     8.7960 ca         1 Q18      -0.069800
     21 C21          0.0330     0.3970     8.6480 ca         1 Q18      -0.243200
     22 N22          0.6030     0.0530     7.4400 na         1 Q18       0.386600
     23 C23          1.0740     1.1550     6.8050 cc         1 Q18      -0.241100
     24 C24         -0.3460     2.4130     9.9360 ca         1 Q18      -0.051000
     25 C25         -0.9530     1.6610    10.9170 ca         1 Q18      -0.118000
     26 C26         -1.0710     0.2860    10.7740 ca         1 Q18      -0.088000
     27 C27         -0.5840    -0.3460     9.6510 ca         1 Q18      -0.094000
     28 O28          2.0770     6.2890     6.2550 o          1 Q18      -0.555100
     29 O29          4.4570     3.5110     0.8670 oh         1 Q18      -0.476100
     30 H1          -0.3520    -0.8780     0.5290 hc         1 Q18       0.016700
     31 H1A         -0.3520    -0.0340    -1.0240 hc         1 Q18       0.016700
     32 H2           1.8070     0.8830    -0.5230 hc         1 Q18       0.016950
     33 H2A          1.8070    -0.8830    -0.5230 hc         1 Q18       0.016950
     34 H3           3.0710    -0.3660     1.3900 h1         1 Q18       0.010200
     35 H3A          1.4520    -0.6300     2.0660 h1         1 Q18       0.010200
     36 H5           0.7580     2.7460     2.8180 h1         1 Q18       0.010200
     37 H5A          1.0060     1.2620     3.7380 h1         1 Q18       0.010200
     38 H6          -1.2910     1.6080     2.6470 hc         1 Q18       0.016950
     39 H6A         -0.5090     0.0430     2.4170 hc         1 Q18       0.016950
     40 H7          -0.0050     2.1300     0.3720 hc         1 Q18       0.016700
     41 H7A         -1.6120     1.3820     0.4120 hc         1 Q18       0.016700
     42 H8           4.1310     1.3810     2.0290 h1         1 Q18       0.014700
     43 H8A          3.3060     1.1130     3.5700 h1         1 Q18       0.014700
     44 H12          3.5080     6.9430     3.6240 ha         1 Q18       0.111000
     45 H13          4.4500     6.0360     1.5520 ha         1 Q18       0.119000
     46 H18          0.9480     4.4450     7.9580 ha         1 Q18       0.130000
     47 HN22         0.6550    -0.8790     7.0790 hn         1 Q18       0.113700
     48 H23          1.5620     1.1590     5.8380 h4         1 Q18       0.164000
     49 H24         -0.2560     3.4860    10.0500 ha         1 Q18       0.105000
     50 H25         -1.3400     2.1450    11.8060 ha         1 Q18       0.104000
     51 H26         -1.5500    -0.2950    11.5520 ha         1 Q18       0.103000
     52 H27         -0.6800    -1.4200     9.5480 ha         1 Q18       0.099000
     53 HO29         5.3230     3.8610     0.7420 ho         1 Q18       0.404000
@<TRIPOS>BOND
     1     1     2 1   
     2     1     7 1   
     3     1    30 1   
     4     1    31 1   
     5     2     3 1   
     6     2    32 1   
     7     2    33 1   
     8     3     4 1   
     9     3    34 1   
    10     3    35 1   
    11     4     5 1   
    12     4     8 1   
    13     5     6 1   
    14     5    36 1   
    15     5    37 1   
    16     6     7 1   
    17     6    38 1   
    18     6    39 1   
    19     7    40 1   
    20     7    41 1   
    21     8     9 1   
    22     8    42 1   
    23     8    43 1   
    24     9    10 ar  
    25     9    14 ar  
    26    10    11 ar  
    27    10    15 1   
    28    11    12 ar  
    29    11    17 1   
    30    12    13 ar  
    31    12    44 1   
    32    13    14 ar  
    33    13    45 1   
    34    14    29 1   
    35    15    16 1   
    36    16    17 1   
    37    16    18 2   
    38    17    28 2   
    39    18    19 1   
    40    18    46 1   
    41    19    20 1   
    42    19    23 2   
    43    20    21 ar  
    44    20    24 ar  
    45    21    22 1   
    46    21    27 ar  
    47    22    23 1   
    48    22    47 1   
    49    23    48 1   
    50    24    25 ar  
    51    24    49 1   
    52    25    26 ar  
    53    25    50 1   
    54    26    27 ar  
    55    26    51 1   
    56    27    52 1   
    57    29    53 1   
@<TRIPOS>SUBSTRUCTURE
     1 Q18         1 TEMP              0 ****  ****    0 ROOT
