@<TRIPOS>MOLECULE
molecule
   53    57     1     0     0
SMALL
bcc


@<TRIPOS>ATOM
      1 C1           0.0000     0.0000     0.0000 c3         1 Q18      -0.075400
      2 C2           1.4590     0.0000     0.0000 c3         1 Q18      -0.079400
      3 C3           2.0520     0.0000     1.4210 c3         1 Q18       0.171800
      4 N4           2.0380     1.3540     1.9190 n3         1 Q18      -0.732600
      5 C5           0.8530     1.6700     2.7460 c3         1 Q18       0.171800
      6 C6          -0.4580     1.0980     2.1780 c3         1 Q18      -0.079400
      7 C7          -0.5710     1.2610     0.6850 c3         1 Q18      -0.075400
      8 C8           3.2810     1.6640     2.6380 c3         1 Q18       0.228100
      9 C9           3.3400     3.1420     2.9270 ca         1 Q18      -0.130300
     10 C10          2.8060     3.6400     4.1070 ca         1 Q18       0.169100
     11 C11          2.8710     5.0220     4.3560 ca         1 Q18      -0.287600
     12 C12          3.4640     5.8780     3.4280 ca         1 Q18       0.002000
     13 C13          3.9860     5.3720     2.2710 ca         1 Q18      -0.235000
     14 C14          3.9300     4.0040     2.0170 ca         1 Q18       0.196100
     15 O15          2.1900     3.0400     5.1480 os         1 Q18      -0.216200
     16 C16          1.8300     3.9380     6.0960 cc         1 Q18      -0.094100
     17 C17          2.2310     5.2310     5.6660 c          1 Q18       0.574900
     18 C18          1.1930     3.6500     7.2640 cf         1 Q18       0.028000
     19 C19          0.8380     2.2680     7.5820 cd         1 Q18      -0.164200
     20 C20          0.1510     1.7870     8.7960 ca         1 Q18      -0.076800
     21 C21          0.0330     0.3970     8.6480 ca         1 Q18      -0.050200
     22 N22          0.6030     0.0530     7.4400 na         1 Q18      -0.166400
     23 C23          1.0740     1.1550     6.8050 cc         1 Q18      -0.047100
     24 C24         -0.3460     2.4130     9.9360 ca         1 Q18      -0.085000
     25 C25         -0.9530     1.6610    10.9170 ca         1 Q18      -0.146000
     26 C26         -1.0710     0.2860    10.7740 ca         1 Q18      -0.110000
     27 C27         -0.5840    -0.3460     9.6510 ca         1 Q18      -0.137000
     28 O28          2.0770     6.2890     6.2550 o          1 Q18      -0.519100
     29 O29          4.4570     3.5110     0.8670 oh         1 Q18      -0.497100
     30 H1          -0.3520    -0.8780     0.5290 hc         1 Q18       0.042200
     31 H1A         -0.3520    -0.0340    -1.0240 hc         1 Q18       0.042200
     32 H2           1.8070    -0.8830    -0.5230 hc         1 Q18       0.043450
     33 H2A          1.8070     0.8830    -0.5230 hc         1 Q18       0.043450
     34 H3           1.4520    -0.6300     2.0660 h1         1 Q18       0.031700
     35 H3A          3.0710    -0.3660     1.3900 h1         1 Q18       0.031700
     36 H5           0.7580     2.7460     2.8180 h1         1 Q18       0.031700
     37 H5A          1.0060     1.2620     3.7380 h1         1 Q18       0.031700
     38 H6          -0.5090     0.0430     2.4170 hc         1 Q18       0.043450
     39 H6A         -1.2910     1.6080     2.6470 hc         1 Q18       0.043450
     40 H7          -0.0050     2.1300     0.3720 hc         1 Q18       0.042200
     41 H7A         -1.6120     1.3820     0.4120 hc         1 Q18       0.042200
     42 H8           3.3060     1.1130     3.5700 h1         1 Q18       0.042200
     43 H8A          4.1310     1.3810     2.0290 h1         1 Q18       0.042200
     44 H12          3.5080     6.9430     3.6240 ha         1 Q18       0.148000
     45 H13          4.4500     6.0360     1.5520 ha         1 Q18       0.143000
     46 H18          0.9480     4.4450     7.9580 ha         1 Q18       0.173000
     47 HN22         0.6550    -0.8790     7.0790 hn         1 Q18       0.299700
     48 H23          1.5620     1.1590     5.8380 h4         1 Q18       0.192000
     49 H24         -0.2560     3.4860    10.0500 ha         1 Q18       0.134000
     50 H25         -1.3400     2.1450    11.8060 ha         1 Q18       0.133000
     51 H26         -1.5500    -0.2950    11.5520 ha         1 Q18       0.133000
     52 H27         -0.6800    -1.4200     9.5480 ha         1 Q18       0.127000
     53 HO29         5.3480     3.8040     0.7780 ho         1 Q18       0.424000
@<TRIPOS>BOND
     1     1     2 1
     2     1     7 1
     3     2     3 1
     4     3     4 1
     5     4     5 1
     6     4     8 1
     7     5     6 1
     8     6     7 1
     9     8     9 1
    10     9    10 ar
    11     9    14 ar
    12    10    11 ar
    13    10    15 1
    14    11    12 ar
    15    11    17 1
    16    12    13 ar
    17    13    14 ar
    18    14    29 1
    19    15    16 1
    20    16    17 1
    21    16    18 2
    22    17    28 2
    23    18    19 1
    24    19    20 1
    25    19    23 2
    26    20    21 ar
    27    20    24 ar
    28    21    22 1
    29    21    27 ar
    30    22    23 1
    31    24    25 ar
    32    25    26 ar
    33    26    27 ar
    34     1    30 1
    35     1    31 1
    36     2    32 1
    37     2    33 1
    38     3    34 1
    39     3    35 1
    40     5    36 1
    41     5    37 1
    42     6    38 1
    43     6    39 1
    44     7    40 1
    45     7    41 1
    46     8    42 1
    47     8    43 1
    48    12    44 1
    49    13    45 1
    50    18    46 1
    51    22    47 1
    52    23    48 1
    53    24    49 1
    54    25    50 1
    55    26    51 1
    56    27    52 1
    57    29    53 1
@<TRIPOS>SUBSTRUCTURE
     1 Q18         1 TEMP              0 ****  ****    0 ROOT
