@<TRIPOS>MOLECULE
Q19
   38    40     1     0     0
SMALL
bcc


@<TRIPOS>ATOM
      1 C1           0.0000     0.0000     0.0000 ca         1 Q19       0.593200
      2 N2           1.3250     0.0000     0.0000 nb         1 Q19      -0.703000
      3 C3           2.0190     0.0000     1.1350 ca         1 Q19       0.722900
      4 N4           1.4440     0.0010     2.3230 nb         1 Q19      -0.720000
      5 C5           0.1060     0.0010     2.4290 ca         1 Q19       0.461600
      6 C6          -0.6740     0.0010     1.2470 ca         1 Q19      -0.337600
      7 C7          -0.5330     0.0010     3.6750 ca         1 Q19      -0.162300
      8 C8          -1.9170     0.0010     3.7290 cp         1 Q19       0.004000
      9 C9          -2.6770     0.0000     2.5490 ca         1 Q19      -0.113300
     10 C10         -2.0710     0.0000     1.3300 ca         1 Q19      -0.044000
     11 N11         -0.7050     0.0060    -1.1840 nv         1 Q19      -0.631500
     12 N12          3.4000    -0.0010     1.0670 nv         1 Q19      -0.500500
     13 C13         -4.1810     0.0000     2.6340 c3         1 Q19       0.053200
     14 C14         -2.6010     0.0000     5.0450 cp         1 Q19      -0.053000
     15 C15         -3.6130     0.9250     5.3060 ca         1 Q19      -0.070000
     16 C16         -4.2530     0.9290     6.5310 ca         1 Q19      -0.118000
     17 C17         -3.8970     0.0180     7.5040 ca         1 Q19      -0.065000
     18 C18         -2.8850    -0.9160     7.2560 ca         1 Q19      -0.188600
     19 C19         -2.2400    -0.9260     6.0180 ca         1 Q19      -0.024000
     20 C20         -2.5050    -1.8860     8.2950 c          1 Q19       0.624700
     21 O21         -1.6260    -2.6950     8.0770 o          1 Q19      -0.559100
     22 C22         -3.2060    -1.8770     9.6280 c3         1 Q19      -0.091100
     23 H7           0.0500     0.0010     4.5880 ha         1 Q19       0.128000
     24 H10         -2.6690    -0.0000     0.4270 ha         1 Q19       0.110000
     25 HN11        -1.1820     0.8360    -1.4780 hn         1 Q19       0.280800
     26 HN1A        -0.7360    -0.8170    -1.7530 hn         1 Q19       0.280800
     27 HN12         3.8580     0.0700     0.1800 hn         1 Q19       0.274800
     28 HN1B         3.9420    -0.0740     1.9050 hn         1 Q19       0.274800
     29 H13         -4.5330     1.0090     2.8130 hc         1 Q19       0.011033
     30 H13A        -4.4970    -0.6430     3.4460 hc         1 Q19       0.011033
     31 H13B        -4.5950    -0.3660     1.7020 hc         1 Q19       0.011033
     32 H15         -3.8970     1.6430     4.5460 ha         1 Q19       0.116000
     33 H16         -5.0370     1.6500     6.7270 ha         1 Q19       0.106000
     34 H17         -4.4010     0.0270     8.4630 ha         1 Q19       0.108000
     35 H19         -1.4560    -1.6460     5.8180 ha         1 Q19       0.132000
     36 H22         -4.2650    -2.0540     9.4810 hc         1 Q19       0.026033
     37 H22A        -3.0640    -0.9150    10.1040 hc         1 Q19       0.026033
     38 H22B        -2.7950    -2.6560    10.2580 hc         1 Q19       0.026033
@<TRIPOS>BOND
     1     1     2 ar  
     2     1     6 ar  
     3     1    11 1   
     4     2     3 ar  
     5     3     4 ar  
     6     3    12 1   
     7     4     5 ar  
     8     5     6 ar  
     9     5     7 ar  
    10     6    10 ar  
    11     7     8 ar  
    12     7    23 1   
    13     8     9 ar  
    14     8    14 1   
    15     9    10 ar  
    16     9    13 1   
    17    10    24 1   
    18    11    25 1   
    19    11    26 1   
    20    12    27 1   
    21    12    28 1   
    22    13    29 1   
    23    13    30 1   
    24    13    31 1   
    25    14    15 ar  
    26    14    19 ar  
    27    15    16 ar  
    28    15    32 1   
    29    16    17 ar  
    30    16    33 1   
    31    17    18 ar  
    32    17    34 1   
    33    18    19 ar  
    34    18    20 1   
    35    19    35 1   
    36    20    21 2   
    37    20    22 1   
    38    22    36 1   
    39    22    37 1   
    40    22    38 1   
@<TRIPOS>SUBSTRUCTURE
     1 Q19         1 TEMP              0 ****  ****    0 ROOT
