@<TRIPOS>MOLECULE
Q1A
   53    56     1     0     0
SMALL
bcc


@<TRIPOS>ATOM
      1 N1         -0.0310    0.3020    0.0730 nc        1 Q1A     -0.418300
      2 C10         6.5830    0.9220   -0.4680 ca        1 Q1A     -0.158000
      3 C13         7.9730   -0.0400   -2.6930 ca        1 Q1A     -0.095500
      4 C15        10.1500    0.4650   -1.6130 cp        1 Q1A     -0.040000
      5 C17        12.2290   -0.7720   -1.8020 ca        1 Q1A     -0.146000
      6 C20        13.0360    2.8770   -1.2380 ca        1 Q1A      0.650200
      7 C21        11.0400    4.0650   -1.1420 ca        1 Q1A      0.429200
      8 C22        10.2570    2.9380   -1.3050 ca        1 Q1A     -0.282300
      9 C01        -0.9440    1.2100    4.0190 c3        1 Q1A     -0.089767
     10 C02        -0.2490   -0.0990    3.6560 c3        1 Q1A     -0.085300
     11 C03         0.8940   -0.3570    4.6310 c3        1 Q1A     -0.089767
     12 C04        -1.2530   -1.2450    3.7310 c3        1 Q1A     -0.089767
     13 C05         0.2910   -0.0040    2.2760 cc        1 Q1A      0.277000
     14 C06         1.5450   -0.0980    1.7130 cd        1 Q1A     -0.341600
     15 C07         1.3080    0.1020    0.2740 cd        1 Q1A      0.432200
     16 N01         2.2570    0.0410   -0.7470 n         1 Q1A     -0.529400
     17 C08         3.6330    0.2720   -0.4980 c         1 Q1A      0.779100
     18 O01         4.0800    0.3290    0.6670 o         1 Q1A     -0.602100
     19 N02         4.4550    0.4320   -1.6320 n         1 Q1A     -0.460100
     20 C09         5.8640    0.4150   -1.5700 ca        1 Q1A      0.062600
     21 C11         7.9730    0.9440   -0.4920 ca        1 Q1A     -0.095500
     22 C12         8.6860    0.4690   -1.5990 cp        1 Q1A     -0.058000
     23 C14         6.5850   -0.0710   -2.6860 ca        1 Q1A     -0.158000
     24 C16        10.8200   -0.7300   -1.7970 ca        1 Q1A     -0.097000
     25 C18        12.9610    0.3770   -1.6190 ca        1 Q1A     -0.093000
     26 C19        12.3120    1.6220   -1.4300 ca        1 Q1A     -0.178300
     27 N03        14.4370    2.8730   -1.2810 nh        1 Q1A     -0.926500
     28 N04        12.3980    4.0590   -1.0870 nb        1 Q1A     -0.742000
     29 C1         10.8920    1.6740   -1.4430 ca        1 Q1A      0.029000
     30 O1         -0.6420    0.2340    1.2360 os        1 Q1A     -0.114100
     31 H1          6.0520    1.2950    0.4230 ha        1 Q1A      0.151000
     32 H2          8.5210   -0.4200   -3.5690 ha        1 Q1A      0.143000
     33 H3         12.7340   -1.7380   -1.9540 ha        1 Q1A      0.136000
     34 H4         10.5890    5.0690   -1.0330 h4        1 Q1A      0.021100
     35 H5          9.1620    3.0080   -1.3370 ha        1 Q1A      0.153000
     36 H6         -1.7630    1.4230    3.2900 hc        1 Q1A      0.045144
     37 H7         -0.2160    2.0550    4.0000 hc        1 Q1A      0.045144
     38 H8         -1.3800    1.1330    5.0430 hc        1 Q1A      0.045144
     39 H9          1.6380    0.4740    4.5870 hc        1 Q1A      0.045144
     40 H10         0.4910   -0.4260    5.6700 hc        1 Q1A      0.045144
     41 H11         1.4110   -1.3140    4.3810 hc        1 Q1A      0.045144
     42 H12        -2.0770   -1.0800    2.9960 hc        1 Q1A      0.045144
     43 H13        -0.7530   -2.2160    3.4990 hc        1 Q1A      0.045144
     44 H14        -1.6870   -1.3000    4.7580 hc        1 Q1A      0.045144
     45 H15         2.5120   -0.2650    2.1830 ha        1 Q1A      0.205000
     46 H16         1.9070    0.1790   -1.6710 hn        1 Q1A      0.326500
     47 H17         4.0790    0.1830   -2.5210 hn        1 Q1A      0.312500
     48 H18         8.5210    1.3400    0.3780 ha        1 Q1A      0.143000
     49 H19         6.0570   -0.4740   -3.5640 ha        1 Q1A      0.151000
     50 H20        10.2540   -1.6640   -1.9370 ha        1 Q1A      0.138000
     51 H21        14.0600    0.3150   -1.6410 ha        1 Q1A      0.132000
     52 H22        14.8810    3.7300   -1.0300 hn        1 Q1A      0.405300
     53 H23        14.8570    2.0700   -0.8710 hn        1 Q1A      0.405300
@<TRIPOS>BOND
     1    1   15 2   
     2    1   30 1   
     3    2   20 ar  
     4    2   21 ar  
     5    2   31 1   
     6    3   22 ar  
     7    3   23 ar  
     8    3   32 1   
     9    4   22 1   
    10    4   24 ar  
    11    4   29 ar  
    12    5   24 ar  
    13    5   25 ar  
    14    5   33 1   
    15    6   26 ar  
    16    6   27 1   
    17    6   28 ar  
    18    7    8 ar  
    19    7   28 ar  
    20    7   34 1   
    21    8   29 ar  
    22    8   35 1   
    23    9   10 1   
    24    9   36 1   
    25    9   37 1   
    26    9   38 1   
    27   10   11 1   
    28   10   12 1   
    29   10   13 1   
    30   11   39 1   
    31   11   40 1   
    32   11   41 1   
    33   12   42 1   
    34   12   43 1   
    35   12   44 1   
    36   13   14 2   
    37   13   30 1   
    38   14   15 1   
    39   14   45 1   
    40   15   16 1   
    41   16   17 1   
    42   16   46 1   
    43   17   18 2   
    44   17   19 1   
    45   19   20 1   
    46   19   47 1   
    47   20   23 ar  
    48   21   22 ar  
    49   21   48 1   
    50   23   49 1   
    51   24   50 1   
    52   25   26 ar  
    53   25   51 1   
    54   26   29 ar  
    55   27   52 1   
    56   27   53 1   
@<TRIPOS>SUBSTRUCTURE
     1 Q1A         1 TEMP              0 ****  ****    0 ROOT
