@<TRIPOS>MOLECULE
Q1T
   49    51     1     0     0
SMALL
bcc


@<TRIPOS>ATOM
      1 N01          0.0000     0.0000     0.0000 n2         1 Q1T      -0.103000
      2 C02          1.3240     0.0000     0.0000 c2         1 Q1T      -0.013000
      3 N02          2.0130     0.0020    -1.2070 nv         1 Q1T      -0.058000
      4 C03          2.0320     0.0000     1.1970 c2         1 Q1T      -0.175000
      5 C04          1.3340    -0.0020     2.3920 c2         1 Q1T      -0.039000
      6 C05         -0.0540    -0.0030     2.3480 c2         1 Q1T      -0.154000
      7 C06         -0.6920    -0.0020     1.1230 c2         1 Q1T      -0.029000
      8 C07          2.0630    -0.0020     3.7100 c3         1 Q1T      -0.063000
      9 C08         -2.1980    -0.0020     1.0690 c3         1 Q1T      -0.295000
     10 C09         -2.6780     1.1810     0.2260 DU         1 Q1T      -0.127000
     11 C11         -4.1840     1.1810     0.1720 ca         1 Q1T      -0.049000
     12 C12         -4.9060     1.8660     1.1280 ca         1 Q1T      -0.105000
     13 C13         -6.3020     1.8680     1.0800 ca         1 Q1T       0.085000
     14 C14         -6.9610     1.1760     0.0630 ca         1 Q1T      -0.155000
     15 C15         -6.2260     0.4910    -0.8910 ca         1 Q1T      -0.046000
     16 C16         -4.8370     0.5000    -0.8380 ca         1 Q1T      -0.148000
     17 C17         -7.0540     2.5770     2.0710 c1         1 Q1T      -0.104000
     18 N18         -7.6380     3.1360     2.8700 n1         1 Q1T      -0.046000
     19 C19         -6.1670    -0.9900    -2.8340 c3         1 Q1T      -0.077000
     20 N19         -6.8820    -0.2030    -1.9110 nh         1 Q1T       0.101000
     21 C20         -8.3450    -0.2080    -1.9710 c3         1 Q1T      -0.315000
     22 C21         -8.8240     0.9720    -2.8170 c3         1 Q1T       0.243000
     23 N22        -10.2930     0.9680    -2.8770 n7         1 Q1T      -0.054000
     24 C23        -10.7900     2.0910    -3.6840 c3         1 Q1T      -0.102000
     25 H021         2.2950    -0.8630    -1.6240 hn         1 Q1T       0.070000
     26 H022         2.1950     0.8660    -1.6770 hn         1 Q1T       0.070000
     27 H03          3.1150    -0.0000     1.1870 ha         1 Q1T       0.120000
     28 H05         -0.6250    -0.0040     3.2680 ha         1 Q1T       0.121000
     29 H071         1.4830     0.5440     4.4440 hc         1 Q1T       0.050000
     30 H072         3.0300     0.4710     3.5880 hc         1 Q1T       0.050000
     31 H073         2.2010    -1.0230     4.0460 hc         1 Q1T       0.050000
     32 H081        -2.5250     0.3420     0.0950 DU         1 Q1T       0.280000
     33 H082        -2.5870     0.6600     1.8340 hc         1 Q1T       0.097000
     34 H091        -2.8610     0.8500    -0.7890 ha         1 Q1T       0.087000
     35 H092        -1.9180     1.9530     0.2220 ha         1 Q1T       0.087000
     36 H12         -4.3900     2.4020     1.9150 ha         1 Q1T       0.122000
     37 H16         -4.2650    -0.0330    -1.5880 ha         1 Q1T       0.133000
     38 H14         -8.0440     1.1750     0.0230 ha         1 Q1T       0.123000
     39 H191        -6.7850    -1.1770    -3.7040 h1         1 Q1T       0.053333
     40 H192        -5.2680    -0.4670    -3.1350 h1         1 Q1T       0.053333
     41 H193        -5.8990    -1.9330    -2.3730 h1         1 Q1T       0.053333
     42 H201        -8.6880     0.6760    -2.4950 h1         1 Q1T       0.010500
     43 H202        -8.7470    -0.2100    -0.9650 h1         1 Q1T       0.010500
     44 H211        -8.7530     1.8840    -2.2380 h1         1 Q1T       0.004000
     45 H212        -8.2050     1.0570    -3.7020 h1         1 Q1T       0.004000
     46 H22        -10.6640     1.0950    -1.9570 hn         1 Q1T       0.051000
     47 H231       -10.4010     3.0210    -3.2880 h1         1 Q1T       0.042000
     48 H232       -11.8730     2.1090    -3.6480 h1         1 Q1T       0.042000
     49 H233       -10.4650     1.9700    -4.7100 h1         1 Q1T       0.042000
@<TRIPOS>BOND
     1     1     2 1   
     2     1     7 1   
     3     2     3 1   
     4     2     4 1   
     5     3    25 1   
     6     3    26 1   
     7     4     5 1   
     8     4    27 1   
     9     5     6 1   
    10     5     8 1   
    11     6     7 1   
    12     6    28 1   
    13     7     9 1   
    14     8    29 1   
    15     8    30 1   
    16     8    31 1   
    17     9    10 1   
    18     9    32 1   
    19     9    33 1   
    20    10    11 1   
    21    10    32 1   
    22    10    34 1   
    23    10    35 1   
    24    11    12 1   
    25    11    16 1   
    26    12    13 1   
    27    12    36 1   
    28    13    14 1   
    29    13    17 1   
    30    14    15 1   
    31    14    38 1   
    32    15    16 1   
    33    15    20 1   
    34    16    37 1   
    35    17    18 1   
    36    19    20 1   
    37    19    39 1   
    38    19    40 1   
    39    19    41 1   
    40    20    21 1   
    41    21    22 1   
    42    21    42 1   
    43    21    43 1   
    44    22    23 1   
    45    22    44 1   
    46    22    45 1   
    47    23    24 1   
    48    23    46 1   
    49    24    47 1   
    50    24    48 1   
    51    24    49 1   
@<TRIPOS>SUBSTRUCTURE
     1 Q1T         1 TEMP              0 ****  ****    0 ROOT
