@<TRIPOS>MOLECULE
molecule
   42    44     1     0     0
SMALL
bcc


@<TRIPOS>ATOM
      1 C1           0.0000     0.0000     0.0000 ca         1 Q20       0.745200
      2 N2           1.3250     0.0000     0.0000 nb         1 Q20      -0.780000
      3 C3           2.0200     0.0000     1.1340 ca         1 Q20       0.939900
      4 N4           1.4450     0.0010     2.3220 nb         1 Q20      -0.746000
      5 C5           0.1070     0.0020     2.4300 ca         1 Q20       0.453600
      6 C6          -0.6730     0.0020     1.2470 ca         1 Q20      -0.296600
      7 C7          -2.0700     0.0030     1.3310 ca         1 Q20      -0.089000
      8 C8          -2.6750     0.0050     2.5510 ca         1 Q20      -0.072300
      9 C9          -1.9150     0.0060     3.7300 cp         1 Q20       0.001000
     10 C10         -0.5300     0.0030     3.6750 ca         1 Q20      -0.167300
     11 N11         -0.7070     0.0050    -1.1840 nv         1 Q20      -1.081500
     12 N12          3.4010    -0.0000     1.0660 nv         1 Q20      -1.057500
     13 C13         -4.1800     0.0060     2.6360 c3         1 Q20      -0.048800
     14 C14         -2.5980     0.0090     5.0450 cp         1 Q20      -0.094000
     15 C15         -3.3790    -1.0890     5.4340 ca         1 Q20       0.188100
     16 C16         -4.0180    -1.0860     6.6670 ca         1 Q20      -0.243000
     17 C17         -3.8910    -0.0080     7.5120 ca         1 Q20      -0.022000
     18 C18         -3.1140     1.0940     7.1350 ca         1 Q20      -0.244600
     19 C19         -2.4630     1.0970     5.8970 ca         1 Q20      -0.036000
     20 O20         -3.5080    -2.1540     4.6050 os         1 Q20      -0.316900
     21 C21         -4.3170    -3.2390     5.0660 c3         1 Q20       0.131400
     22 C22         -4.3450    -4.3400     4.0030 c3         1 Q20      -0.093100
     23 C23         -2.9790     2.2450     8.0380 c          1 Q20       0.585500
     24 O24         -3.5410     2.2400     9.1140 o          1 Q20      -0.534100
     25 H7          -2.6690     0.0020     0.4290 ha         1 Q20       0.142000
     26 H10          0.0530     0.0050     4.5880 ha         1 Q20       0.156000
     27 HN11        -0.9680     0.8730    -1.6070 hn         1 Q20       0.441800
     28 HN1A        -0.9160    -0.8590    -1.6450 hn         1 Q20       0.441800
     29 HN12         3.9100     0.8500     1.2100 hn         1 Q20       0.442800
     30 HN1B         3.8920    -0.8480     0.8610 hn         1 Q20       0.442800
     31 H13         -4.5870     0.5880     1.8180 hc         1 Q20       0.046700
     32 H13A        -4.5460    -1.0120     2.5720 hc         1 Q20       0.046700
     33 H13B        -4.4880     0.4420     3.5780 hc         1 Q20       0.046700
     34 H16         -4.6200    -1.9370     6.9640 ha         1 Q20       0.143000
     35 H17         -4.3940    -0.0110     8.4710 ha         1 Q20       0.155000
     36 H19         -1.8610     1.9470     5.6010 ha         1 Q20       0.145000
     37 H21         -3.9020    -3.6340     5.9850 h1         1 Q20       0.038200
     38 H21A        -5.3250    -2.8860     5.2470 h1         1 Q20       0.038200
     39 H22         -3.3310    -4.5840     3.7100 hc         1 Q20       0.050033
     40 H22A        -4.8250    -5.2220     4.4100 hc         1 Q20       0.050033
     41 H22B        -4.8970    -3.9940     3.1380 hc         1 Q20       0.050033
     42 H23         -2.3570     3.0850     7.7560 h4         1 Q20       0.001200
@<TRIPOS>BOND
     1     1     2 ar
     2     1     6 ar
     3     1    11 1
     4     2     3 ar
     5     3     4 ar
     6     3    12 1
     7     4     5 ar
     8     5     6 ar
     9     5    10 ar
    10     6     7 ar
    11     7     8 ar
    12     8     9 ar
    13     8    13 1
    14     9    10 ar
    15     9    14 1
    16    14    15 ar
    17    14    19 ar
    18    15    16 ar
    19    15    20 1
    20    16    17 ar
    21    17    18 ar
    22    18    19 ar
    23    18    23 1
    24    20    21 1
    25    21    22 1
    26    23    24 2
    27     7    25 1
    28    10    26 1
    29    11    27 1
    30    11    28 1
    31    12    29 1
    32    12    30 1
    33    13    31 1
    34    13    32 1
    35    13    33 1
    36    16    34 1
    37    17    35 1
    38    19    36 1
    39    21    37 1
    40    21    38 1
    41    22    39 1
    42    22    40 1
    43    22    41 1
    44    23    42 1
@<TRIPOS>SUBSTRUCTURE
     1 Q20         1 TEMP              0 ****  ****    0 ROOT
