@<TRIPOS>MOLECULE
Q21
   50    54     1     0     0
SMALL
bcc


@<TRIPOS>ATOM
      1 O2          0.3090   -1.3640    1.0060 o         1 Q21     -0.565100
      2 C13         1.4970   -1.1630    0.7100 c         1 Q21      0.646100
      3 C14         2.6020   -1.1380    1.7840 c3        1 Q21      0.076100
      4 C15         3.3750   -2.4440    1.7600 c3        1 Q21     -0.106100
      5 O3          1.9640   -1.0550    3.0630 os        1 Q21     -0.311900
      6 C16         2.0050    0.2020    3.6590 ca        1 Q21      0.107100
      7 C17         3.2040    0.8200    3.9530 ca        1 Q21     -0.173000
      8 C18         3.2030    2.0360    4.6740 ca        1 Q21     -0.116000
      9 C19         2.0220    2.5990    5.0920 ca        1 Q21     -0.124000
     10 C21         0.7550    0.7650    4.0630 ca        1 Q21     -0.041000
     11 C46        -0.4900    0.1530    3.7570 ca        1 Q21     -0.095000
     12 C45        -1.6650    0.7260    4.1820 ca        1 Q21     -0.136000
     13 C44        -1.6460    1.9290    4.9270 ca        1 Q21     -0.116000
     14 C43        -0.4550    2.5430    5.2280 ca        1 Q21     -0.131000
     15 C20         0.7780    1.9770    4.8010 ca        1 Q21     -0.026000
     16 N3          1.9350   -0.9460   -0.5910 n         1 Q21     -0.476100
     17 C10         1.1650   -0.9710   -1.7670 ca        1 Q21      0.061600
     18 C11        -0.2530   -0.8890   -1.7380 ca        1 Q21     -0.131000
     19 C12        -1.0140   -0.8930   -2.9040 ca        1 Q21     -0.088000
     20 C7         -0.3250   -0.9750   -4.1030 ca        1 Q21      0.014100
     21 C8          1.1060   -1.0540   -4.1730 ca        1 Q21      0.082400
     22 C9          1.8560   -1.0550   -2.9990 ca        1 Q21     -0.130000
     23 O1         -0.8240   -0.9950   -5.4050 os        1 Q21     -0.305700
     24 C1          0.3440   -1.0880   -6.2210 cc        1 Q21      0.589200
     25 N1          1.4840   -1.1240   -5.5330 nd        1 Q21     -0.550100
     26 C2          0.1080   -1.1290   -7.6560 ca        1 Q21     -0.082900
     27 C3         -1.1960   -1.0770   -8.1700 ca        1 Q21     -0.204800
     28 C4         -1.3640   -1.1190   -9.5650 ca        1 Q21      0.386700
     29 N2         -0.3410   -1.2070  -10.4380 nb        1 Q21     -0.648000
     30 C5          0.9040   -1.2560   -9.9270 ca        1 Q21      0.386700
     31 C6          1.1860   -1.2200   -8.5490 ca        1 Q21     -0.204800
     32 H1          3.2850   -0.2600    1.6170 h1        1 Q21      0.069700
     33 H2          3.8740   -2.5760    0.7720 hc        1 Q21      0.057700
     34 H3          4.1490   -2.4340    2.5660 hc        1 Q21      0.057700
     35 H4          2.6870   -3.3040    1.9450 hc        1 Q21      0.057700
     36 H5          4.1590    0.3720    3.6450 ha        1 Q21      0.135000
     37 H6          4.1660    2.5170    4.9010 ha        1 Q21      0.134000
     38 H7          2.0190    3.5420    5.6600 ha        1 Q21      0.135000
     39 H8         -0.4810   -0.7760    3.1610 ha        1 Q21      0.172000
     40 H9         -2.6310    0.2570    3.9460 ha        1 Q21      0.136000
     41 H10        -2.6000    2.3650    5.2600 ha        1 Q21      0.132000
     42 H11        -0.4320    3.4800    5.8030 ha        1 Q21      0.132000
     43 H12         2.9190   -0.8670   -0.7290 hn        1 Q21      0.315500
     44 H13        -0.7810   -0.8250   -0.7710 ha        1 Q21      0.180000
     45 H14        -2.1100   -0.8330   -2.8700 ha        1 Q21      0.158000
     46 H15         2.9530   -1.1180   -3.0480 ha        1 Q21      0.151000
     47 H16        -2.0640   -1.0050   -7.4990 ha        1 Q21      0.165000
     48 H17        -2.3740   -1.0810  -10.0100 h4        1 Q21      0.029100
     49 H18         1.7240   -1.3270  -10.6650 h4        1 Q21      0.029100
     50 H19         2.2240   -1.2630   -8.1900 ha        1 Q21      0.165000
@<TRIPOS>BOND
     1    1    2 2
     2    2    3 1
     3    2   16 1
     4    3    4 1
     5    3    5 1
     6    3   32 1
     7    4   33 1
     8    4   34 1
     9    4   35 1
    10    5    6 1
    11    6    7 ar
    12    6   10 ar
    13    7    8 ar
    14    7   36 1
    15    8    9 ar
    16    8   37 1
    17    9   15 ar
    18    9   38 1
    19   10   11 ar
    20   10   15 ar
    21   11   12 ar
    22   11   39 1
    23   12   13 ar
    24   12   40 1
    25   13   14 ar
    26   13   41 1
    27   14   15 ar
    28   14   42 1
    29   16   17 1
    30   16   43 1
    31   17   18 ar
    32   17   22 ar
    33   18   19 ar
    34   18   44 1
    35   19   20 ar
    36   19   45 1
    37   20   21 ar
    38   20   23 1
    39   21   22 ar
    40   21   25 1
    41   22   46 1
    42   23   24 1
    43   24   25 2
    44   24   26 1
    45   26   27 ar
    46   26   31 ar
    47   27   28 ar
    48   27   47 1
    49   28   29 ar
    50   28   48 1
    51   29   30 ar
    52   30   31 ar
    53   30   49 1
    54   31   50 1
@<TRIPOS>SUBSTRUCTURE
     1 Q21         1 TEMP              0 ****  ****    0 ROOT
