@<TRIPOS>MOLECULE
Q22
   48    52     1     0     0
SMALL
bcc


@<TRIPOS>ATOM
      1 C7'          0.0000     0.0000     0.0000 ca         1 Q22       0.331900
      2 N8'          1.3160     0.0000     0.0000 nb         1 Q22      -0.537000
      3 C8           1.9740     0.0000     1.1620 ca         1 Q22       0.553000
      4 N1'          3.3130    -0.0000     1.2180 nb         1 Q22      -0.676000
      5 C2'          3.9460    -0.0010     2.3740 ca         1 Q22       0.773900
      6 N2'          5.3270    -0.0020     2.3630 nv         1 Q22      -0.605500
      7 N3'          3.3260     0.0000     3.5490 nb         1 Q22      -0.738000
      8 C4'          2.0020     0.0000     3.6290 ca         1 Q22       0.505900
      9 N4'          1.3610     0.0020     4.8490 nv         1 Q22      -0.474500
     10 C4           1.2450     0.0000     2.3760 ca         1 Q22       0.032000
     11 N5'         -0.0850     0.0000     2.3540 nb         1 Q22      -0.485000
     12 C6'         -0.7140     0.0010     1.1980 ca         1 Q22       0.220300
     13 C9'         -2.2210     0.0010     1.1680 c3         1 Q22       0.065500
     14 N'0         -2.7130    -1.3780     1.2790 nh         1 Q22      -0.372000
     15 C'0         -2.5710    -2.0920     0.0060 c3         1 Q22       0.232900
     16 C'1         -2.5350    -3.5680     0.2690 c2         1 Q22      -0.146200
     17 C'2         -3.1370    -4.4430    -0.4730 c2         1 Q22      -0.151200
     18 C'3         -3.9380    -4.0810    -1.6860 c3         1 Q22       0.072000
     19 C'4         -4.2950    -2.6270    -1.6890 c2         1 Q22      -0.117200
     20 C'5         -3.6770    -1.7300    -0.9350 ce         1 Q22      -0.144200
     21 C'6         -4.0770    -0.3140    -1.0360 ce         1 Q22      -0.091000
     22 C6          -4.7040     0.2540     0.0160 cf         1 Q22      -0.085200
     23 C'7         -5.0100    -0.5870     1.1840 ca         1 Q22      -0.061800
     24 C'8         -6.2990    -0.5830     1.7220 ca         1 Q22      -0.129000
     25 C7          -4.0210    -1.4040     1.7630 ca         1 Q22       0.011600
     26 C9          -4.3500    -2.2320     2.8240 ca         1 Q22      -0.056000
     27 C11         -5.6330    -2.2320     3.3360 ca         1 Q22      -0.135000
     28 C'9         -6.6050    -1.4020     2.7930 ca         1 Q22       0.124100
     29 O1          -7.8590    -1.3940     3.3170 oh         1 Q22      -0.500100
     30 H7'         -0.5350     0.0010    -0.9420 h4         1 Q22      -0.008900
     31 HN2'         5.8260     0.8030     2.0390 hn         1 Q22       0.279300
     32 HN2A         5.8300    -0.8050     2.6850 hn         1 Q22       0.279300
     33 HN4'         1.8000    -0.4160     5.6450 hn         1 Q22       0.278800
     34 HN4A         0.4550     0.4180     4.9380 hn         1 Q22       0.278800
     35 H9'         -2.5980     0.5880     1.9970 h1         1 Q22       0.042200
     36 H9'A        -2.5630     0.4330     0.2350 h1         1 Q22       0.042200
     37 H'0         -1.6300    -1.8030    -0.4460 h1         1 Q22       0.049700
     38 H'1         -1.9720    -3.9220     1.1240 ha         1 Q22       0.111000
     39 H'2         -3.0560    -5.4890    -0.2030 ha         1 Q22       0.100000
     40 H'3         -3.3560    -4.3030    -2.5720 hc         1 Q22       0.026700
     41 H'3A        -4.8480    -4.6680    -1.6960 hc         1 Q22       0.026700
     42 H'4         -5.0950    -2.2930    -2.3390 ha         1 Q22       0.102000
     43 H6          -5.1790     1.2210    -0.0940 ha         1 Q22       0.112000
     44 H'8         -7.0600     0.0640     1.3010 ha         1 Q22       0.115000
     45 H9          -3.5980    -2.8830     3.2530 ha         1 Q22       0.116000
     46 H11         -5.8780    -2.8720     4.1760 ha         1 Q22       0.114000
     47 HO1         -7.9340    -0.6930     3.9430 ho         1 Q22       0.402000
     48 H19         -4.0800     0.1810    -2.0000 ha         1 Q22       0.114000
@<TRIPOS>BOND
     1     1     2 ar  
     2     1    12 ar  
     3     1    30 1   
     4     2     3 ar  
     5     3     4 ar  
     6     3    10 ar  
     7     4     5 ar  
     8     5     6 1   
     9     5     7 ar  
    10     6    31 1   
    11     6    32 1   
    12     7     8 ar  
    13     8     9 1   
    14     8    10 ar  
    15     9    33 1   
    16     9    34 1   
    17    10    11 ar  
    18    11    12 ar  
    19    12    13 1   
    20    13    14 1   
    21    13    35 1   
    22    13    36 1   
    23    14    15 1   
    24    14    25 1   
    25    15    16 1   
    26    15    20 1   
    27    15    37 1   
    28    16    17 2   
    29    16    38 1   
    30    17    18 1   
    31    17    39 1   
    32    18    19 1   
    33    18    40 1   
    34    18    41 1   
    35    19    20 2   
    36    19    42 1   
    37    20    21 1   
    38    21    22 2   
    39    21    48 1   
    40    22    23 1   
    41    22    43 1   
    42    23    24 ar  
    43    23    25 ar  
    44    24    28 ar  
    45    24    44 1   
    46    25    26 ar  
    47    26    27 ar  
    48    26    45 1   
    49    27    28 ar  
    50    27    46 1   
    51    28    29 1   
    52    29    47 1   
@<TRIPOS>SUBSTRUCTURE
     1 Q22         1 TEMP              0 ****  ****    0 ROOT
