@<TRIPOS>MOLECULE
Q23
   27    28     1     0     0
SMALL
bcc


@<TRIPOS>ATOM
      1 C1          0.3220    0.6310    0.0600 c3        1 Q23     -0.355600
      2 O1          1.3520   -0.7870   -1.8110 o         1 Q23     -0.646800
      3 S1          1.7340    0.0260   -0.7410 sy        1 Q23      1.366900
      4 C2          2.2370   -0.8810    0.5750 ce        1 Q23     -0.437100
      5 O2          2.6210    1.0640   -1.0260 o         1 Q23     -0.646800
      6 S2         -1.2320    1.8560    2.8170 sy        1 Q23      1.658800
      7 C3          1.4530   -0.8240    1.6570 c2        1 Q23      0.011800
      8 O3          0.1860    0.9990    2.4660 os        1 Q23     -0.562500
      9 C4          0.2070    0.0200    1.4610 c3        1 Q23      0.234300
     10 O4         -2.1910    0.8630    2.9060 o         1 Q23     -0.661300
     11 C5         -0.8250    2.4890    4.2800 ca        1 Q23     -0.421500
     12 O5         -1.3000    2.8080    1.8210 o         1 Q23     -0.661300
     13 C6         -0.1240    3.7020    4.3660 ca        1 Q23      0.002000
     14 C7          0.2160    4.2450    5.6010 ca        1 Q23     -0.158500
     15 C8         -0.1390    3.5790    6.7750 ca        1 Q23     -0.047000
     16 C9         -0.8370    2.3720    6.7090 ca        1 Q23     -0.158500
     17 C10        -1.1740    1.8330    5.4720 ca        1 Q23      0.002000
     18 H1          0.3550    1.7520    0.1480 h1        1 Q23      0.140200
     19 H1A        -0.6030    0.3990   -0.5260 h1        1 Q23      0.140200
     20 H4         -0.7120   -0.6300    1.5490 h1        1 Q23      0.084700
     21 H6          0.1520    4.2310    3.4350 ha        1 Q23      0.160000
     22 H7          0.7650    5.1980    5.6500 ha        1 Q23      0.149000
     23 H8          0.1310    4.0060    7.7540 ha        1 Q23      0.143000
     24 H9         -1.1200    1.8470    7.6330 ha        1 Q23      0.149000
     25 H10        -1.7300    0.8800    5.4180 ha        1 Q23      0.160000
     26 H2          3.1620   -1.4710    0.5450 h4        1 Q23      0.194000
     27 H3          1.6140   -1.3010    2.6290 ha        1 Q23      0.160000
@<TRIPOS>BOND
     1    1    3 1   
     2    1    9 1   
     3    1   18 1   
     4    1   19 1   
     5    2    3 2   
     6    3    4 1   
     7    3    5 2   
     8    4    7 2   
     9    4   26 1   
    10    6    8 1   
    11    6   10 2   
    12    6   11 1   
    13    6   12 2   
    14    7    9 1   
    15    7   27 1   
    16    8    9 1   
    17    9   20 1   
    18   11   13 ar  
    19   11   17 ar  
    20   13   14 ar  
    21   13   21 1   
    22   14   15 ar  
    23   14   22 1   
    24   15   16 ar  
    25   15   23 1   
    26   16   17 ar  
    27   16   24 1   
    28   17   25 1   
@<TRIPOS>SUBSTRUCTURE
     1 Q23         1 TEMP              0 ****  ****    0 ROOT
