@<TRIPOS>MOLECULE
molecule
   27    28     1     0     0
SMALL
bcc


@<TRIPOS>ATOM
      1 C1           0.0000     0.0000     0.0000 c3         1 Q23      -0.179600
      2 O1           2.3610    -1.2440    -0.4470 o          1 Q23      -0.589300
      3 S1           1.8380     0.0000     0.0000 sy         1 Q23       1.127900
      4 C2           2.0520     0.0000     1.7660 ce         1 Q23      -0.246100
      5 O2           2.3620     1.2420    -0.4490 o          1 Q23      -0.589300
      6 S2          -1.4790     2.5520     2.2950 sy         1 Q23       1.544800
      7 C3           0.9050     0.3090     2.3010 c2         1 Q23      -0.134200
      8 O3          -0.4610     1.9970     1.3090 os         1 Q23      -0.534500
      9 C4          -0.2640     0.5850     1.4100 c3         1 Q23       0.181300
     10 O4          -2.5240     1.5910     2.3760 o          1 Q23      -0.632300
     11 C5          -0.7090     2.5830     3.8790 ca         1 Q23      -0.338500
     12 O5          -1.6970     3.9070     1.9270 o          1 Q23      -0.632300
     13 C6          -0.0100     3.7050     4.2850 ca         1 Q23      -0.028500
     14 C7           0.5930     3.7310     5.5280 ca         1 Q23      -0.149000
     15 C8           0.4990     2.6350     6.3650 ca         1 Q23      -0.068000
     16 C9          -0.1990     1.5130     5.9580 ca         1 Q23      -0.149000
     17 C10         -0.8080     1.4890     4.7170 ca         1 Q23      -0.028500
     18 H1          -0.3910    -1.0070    -0.0850 h1         1 Q23       0.128700
     19 H1A         -0.3910     0.6510    -0.7730 h1         1 Q23       0.128700
     20 H4          -1.1500     0.1230     1.8290 h1         1 Q23       0.115700
     21 H6           0.0640     4.5650     3.6300 ha         1 Q23       0.150500
     22 H7           1.1410     4.6090     5.8470 ha         1 Q23       0.140000
     23 H8           0.9740     2.6540     7.3390 ha         1 Q23       0.137000
     24 H9          -0.2750     0.6550     6.6150 ha         1 Q23       0.140000
     25 H10         -1.3550     0.6100     4.3990 ha         1 Q23       0.150500
     26 H2           2.6870    -0.7430     2.2340 h4         1 Q23       0.198000
     27 H3           0.7570     0.1940     3.3680 ha         1 Q23       0.158000
@<TRIPOS>BOND
     1     1     3 1
     2     1     9 1
     3     1    18 1
     4     1    19 1
     5     2     3 2
     6     3     4 1
     7     3     5 2
     8     4     7 2
     9     6     8 1
    10     6    10 2
    11     6    11 1
    12     6    12 2
    13     7     9 1
    14     8     9 1
    15     9    20 1
    16    11    13 ar
    17    11    17 ar
    18    13    14 ar
    19    13    21 1
    20    14    15 ar
    21    14    22 1
    22    15    16 ar
    23    15    23 1
    24    16    17 ar
    25    16    24 1
    26    17    25 1
    27     4    26 1
    28     7    27 1
@<TRIPOS>SUBSTRUCTURE
     1 Q23         1 TEMP              0 ****  ****    0 ROOT
