@<TRIPOS>MOLECULE
Q24
   20    21     1     0     0
SMALL
bcc


@<TRIPOS>ATOM
      1 N1           0.0000     0.0000     0.0000 nb         1 Q24      -0.618000
      2 C2           1.3190     0.0000     0.0000 ca         1 Q24       0.716900
      3 N3           2.0390     0.0000     1.1190 nb         1 Q24      -0.645000
      4 C4           1.4620     0.0000     2.3120 ca         1 Q24       0.557200
      5 C5          -0.6450    -0.0000     3.5900 ca         1 Q24      -0.060000
      6 C6          -2.0090    -0.0000     3.5900 ca         1 Q24      -0.108000
      7 C7          -2.7230    -0.0000     2.3950 ca         1 Q24      -0.078000
      8 C8          -2.0800    -0.0010     1.1930 ca         1 Q24      -0.151300
      9 C4A          0.0460     0.0000     2.3730 ca         1 Q24      -0.285600
     10 C8A         -0.6800     0.0000     1.1560 ca         1 Q24       0.406600
     11 NA2          1.9820    -0.0000    -1.2140 nv         1 Q24      -0.642500
     12 NA4          2.2190    -0.0010     3.4630 nv         1 Q24      -0.651500
     13 H5          -0.1000    -0.0000     4.5260 ha         1 Q24       0.112000
     14 H6          -2.5430     0.0010     4.5320 ha         1 Q24       0.104000
     15 H7          -3.8060    -0.0000     2.4210 ha         1 Q24       0.104000
     16 H8          -2.6490    -0.0010     0.2710 ha         1 Q24       0.120000
     17 HNA2         2.2210     0.8670    -1.6530 hn         1 Q24       0.278800
     18 HNAA         2.2210    -0.8670    -1.6530 hn         1 Q24       0.278800
     19 HNA4         2.5120    -0.8680     3.8680 hn         1 Q24       0.281800
     20 HNAB         2.5130     0.8650     3.8690 hn         1 Q24       0.281800
@<TRIPOS>BOND
     1     1     2 ar  
     2     1    10 ar  
     3     2     3 ar  
     4     2    11 1   
     5     3     4 ar  
     6     4     9 ar  
     7     4    12 1   
     8     5     6 ar  
     9     5     9 ar  
    10     5    13 1   
    11     6     7 ar  
    12     6    14 1   
    13     7     8 ar  
    14     7    15 1   
    15     8    10 ar  
    16     8    16 1   
    17     9    10 ar  
    18    11    17 1   
    19    11    18 1   
    20    12    19 1   
    21    12    20 1   
@<TRIPOS>SUBSTRUCTURE
     1 Q24         1 TEMP              0 ****  ****    0 ROOT
