@<TRIPOS>MOLECULE
Q26
   55    58     1     0     0
SMALL
bcc


@<TRIPOS>ATOM
      1 C1           0.0000     0.0000     0.0000 ca         1 Q26       0.556200
      2 N2           1.3240     0.0000     0.0000 nb         1 Q26      -0.649000
      3 C3           2.0190     0.0000     1.1340 ca         1 Q26       0.714900
      4 N4           1.4440    -0.0020     2.3220 nb         1 Q26      -0.619000
      5 C5           0.1060    -0.0020     2.4300 ca         1 Q26       0.406600
      6 C6          -0.6730    -0.0000     1.2470 ca         1 Q26      -0.284600
      7 C7          -0.5330    -0.0030     3.6750 ca         1 Q26      -0.151300
      8 C8          -1.9160    -0.0030     3.7280 cp         1 Q26       0.005000
      9 C9          -2.6770    -0.0020     2.5500 ca         1 Q26      -0.089000
     10 C10         -2.0710    -0.0010     1.3300 ca         1 Q26      -0.063000
     11 N11         -0.7070     0.0070    -1.1850 nv         1 Q26      -0.652500
     12 N12          3.4000     0.0000     1.0670 nv         1 Q26      -0.641500
     13 C13         -2.6010    -0.0030     5.0440 cp         1 Q26      -0.081000
     14 C14         -2.2370    -0.9270     6.0180 ca         1 Q26      -0.046000
     15 C15         -2.8820    -0.9220     7.2510 cp         1 Q26      -0.076000
     16 C16         -3.8910     0.0060     7.5060 ca         1 Q26      -0.051000
     17 C17         -4.2530     0.9210     6.5390 ca         1 Q26      -0.211000
     18 C18         -3.6110     0.9270     5.3100 ca         1 Q26       0.169100
     19 O19         -3.9670     1.8330     4.3630 os         1 Q26      -0.300900
     20 C20         -5.0050     2.7540     4.7040 c3         1 Q26       0.199400
     21 C21         -5.2650     3.6890     3.5210 c3         1 Q26       0.000900
     22 C22         -2.4970    -1.9050     8.2940 cp         1 Q26      -0.004000
     23 C23         -1.4890    -2.8330     8.0410 ca         1 Q26      -0.122000
     24 C24         -1.1320    -3.7480     9.0120 ca         1 Q26      -0.069000
     25 C25         -1.7720    -3.7450    10.2370 ca         1 Q26      -0.156000
     26 C26         -2.7780    -2.8240    10.4980 ca         1 Q26       0.058600
     27 C27         -3.1390    -1.8980     9.5310 ca         1 Q26      -0.146000
     28 N28         -3.4230    -2.8250    11.7380 nu         1 Q26      -0.408500
     29 S29         -2.5380    -2.9510    13.1320 s6         1 Q26       0.951900
     30 O30         -3.5110    -2.9450    14.1670 o          1 Q26      -0.583300
     31 O31         -1.7060    -4.0830    12.9160 o          1 Q26      -0.583300
     32 C32         -1.5470    -1.4320    13.1790 c3         1 Q26       0.012700
     33 H7           0.0490    -0.0030     4.5880 ha         1 Q26       0.126000
     34 H9          -3.7590    -0.0020     2.6110 ha         1 Q26       0.116000
     35 H10         -2.6690     0.0000     0.4270 ha         1 Q26       0.112000
     36 HN11        -0.9480    -0.8570    -1.6280 hn         1 Q26       0.280800
     37 HN1A        -0.9340     0.8760    -1.6260 hn         1 Q26       0.280800
     38 HN12         3.8970    -0.8660     1.0020 hn         1 Q26       0.278300
     39 HN1B         3.9000     0.8670     1.0500 hn         1 Q26       0.278300
     40 H14         -1.4530    -1.6470     5.8180 ha         1 Q26       0.122000
     41 H16         -4.3940     0.0070     8.4660 ha         1 Q26       0.108000
     42 H17         -5.0360     1.6410     6.7430 ha         1 Q26       0.122000
     43 H20         -5.9100     2.2070     4.9380 h1         1 Q26       0.000200
     44 H20A        -4.7020     3.3370     5.5650 h1         1 Q26       0.000200
     45 H21         -5.6970     3.1250     2.7030 hc         1 Q26       0.012033
     46 H21A        -4.3310     4.1340     3.1990 hc         1 Q26       0.012033
     47 H21B        -5.9520     4.4710     3.8230 hc         1 Q26       0.012033
     48 H23         -0.9860    -2.8380     7.0820 ha         1 Q26       0.113000
     49 H24         -0.3480    -4.4690     8.8140 ha         1 Q26       0.106000
     50 H25         -1.4890    -4.4660    10.9950 ha         1 Q26       0.172000
     51 H27         -3.9230    -1.1790     9.7320 ha         1 Q26       0.115000
     52 HN28        -4.4150    -2.7020    11.7850 hn         1 Q26       0.348800
     53 H32         -2.2050    -0.5720    13.1840 h1         1 Q26       0.064700
     54 H32A        -0.9070    -1.3910    12.3050 h1         1 Q26       0.064700
     55 H32B        -0.9370    -1.4260    14.0740 h1         1 Q26       0.064700
@<TRIPOS>BOND
     1     1     2 ar  
     2     1     6 ar  
     3     1    11 1   
     4     2     3 ar  
     5     3     4 ar  
     6     3    12 1   
     7     4     5 ar  
     8     5     6 ar  
     9     5     7 ar  
    10     6    10 ar  
    11     7     8 ar  
    12     7    33 1   
    13     8     9 ar  
    14     8    13 1   
    15     9    10 ar  
    16     9    34 1   
    17    10    35 1   
    18    11    36 1   
    19    11    37 1   
    20    12    38 1   
    21    12    39 1   
    22    13    14 ar  
    23    13    18 ar  
    24    14    15 ar  
    25    14    40 1   
    26    15    16 ar  
    27    15    22 1   
    28    16    17 ar  
    29    16    41 1   
    30    17    18 ar  
    31    17    42 1   
    32    18    19 1   
    33    19    20 1   
    34    20    21 1   
    35    20    43 1   
    36    20    44 1   
    37    21    45 1   
    38    21    46 1   
    39    21    47 1   
    40    22    23 ar  
    41    22    27 ar  
    42    23    24 ar  
    43    23    48 1   
    44    24    25 ar  
    45    24    49 1   
    46    25    26 ar  
    47    25    50 1   
    48    26    27 ar  
    49    26    28 1   
    50    27    51 1   
    51    28    29 1   
    52    28    52 1   
    53    29    30 2   
    54    29    31 2   
    55    29    32 1   
    56    32    53 1   
    57    32    54 1   
    58    32    55 1   
@<TRIPOS>SUBSTRUCTURE
     1 Q26         1 TEMP              0 ****  ****    0 ROOT
