@<TRIPOS>MOLECULE
molecule
   46    49     1     0     0
SMALL
bcc


@<TRIPOS>ATOM
      1 C1           0.0000     0.0000     0.0000 ca         1 Q27       0.741200
      2 N2           1.3250     0.0000     0.0000 nb         1 Q27      -0.777000
      3 C3           2.0180     0.0000     1.1350 ca         1 Q27       0.935900
      4 N4           1.4430    -0.0030     2.3220 nb         1 Q27      -0.742000
      5 C5           0.1050    -0.0040     2.4290 ca         1 Q27       0.450600
      6 C6          -0.6740    -0.0020     1.2460 ca         1 Q27      -0.295600
      7 C7          -0.5330    -0.0050     3.6730 ca         1 Q27      -0.161300
      8 C8          -1.9190    -0.0050     3.7270 cp         1 Q27       0.009000
      9 C9          -2.6790    -0.0040     2.5460 ca         1 Q27      -0.076300
     10 C10         -2.0720    -0.0030     1.3280 ca         1 Q27      -0.093000
     11 N11         -0.7060     0.0060    -1.1850 nv         1 Q27      -1.081500
     12 N12          3.4000    -0.0000     1.0670 nv         1 Q27      -1.061500
     13 C13         -4.1840    -0.0050     2.6270 c3         1 Q27      -0.046800
     14 C14         -2.6040    -0.0070     5.0390 cp         1 Q27      -0.087000
     15 C15         -2.9280     1.1900     5.6640 ca         1 Q27       0.159100
     16 C16         -3.5730     1.1930     6.9020 ca         1 Q27      -0.207000
     17 C17         -3.8990     0.0290     7.5270 ca         1 Q27      -0.073000
     18 C18         -3.5880    -1.2060     6.9280 ca         1 Q27      -0.070000
     19 C19         -2.9390    -1.2300     5.6690 ca         1 Q27       0.014000
     20 C20         -2.6360    -2.4610     5.0720 ca         1 Q27      -0.124000
     21 C21         -2.9730    -3.6190     5.7060 ca         1 Q27      -0.114000
     22 C22         -3.6170    -3.5980     6.9410 ca         1 Q27      -0.138000
     23 C23         -3.9150    -2.4200     7.5550 ca         1 Q27      -0.105000
     24 O24         -2.6160     2.3680     5.0650 os         1 Q27      -0.320900
     25 C25         -2.9770     3.5650     5.7590 c3         1 Q27       0.133400
     26 C26         -2.5460     4.7810     4.9370 c3         1 Q27      -0.092100
     27 H7           0.0490    -0.0060     4.5860 ha         1 Q27       0.159000
     28 H10         -2.6690    -0.0030     0.4240 ha         1 Q27       0.141000
     29 HN11        -0.9470    -0.8580    -1.6280 hn         1 Q27       0.441300
     30 HN1A        -0.9410     0.8750    -1.6220 hn         1 Q27       0.441300
     31 HN12         3.9000     0.8670     1.0480 hn         1 Q27       0.441800
     32 HN1B         3.9000    -0.8670     1.0540 hn         1 Q27       0.441800
     33 H13         -4.5990     0.0880     1.6310 hc         1 Q27       0.046367
     34 H13A        -4.5210    -0.9320     3.0740 hc         1 Q27       0.046367
     35 H13B        -4.5130     0.8290     3.2350 hc         1 Q27       0.046367
     36 H16         -3.8170     2.1370     7.3740 ha         1 Q27       0.136000
     37 H17         -4.4000     0.0520     8.4870 ha         1 Q27       0.134000
     38 H20         -2.1350    -2.4920     4.1120 ha         1 Q27       0.143000
     39 H21         -2.7460    -4.5690     5.2380 ha         1 Q27       0.130000
     40 H22         -3.8750    -4.5330     7.4250 ha         1 Q27       0.129000
     41 H23         -4.4160    -2.4190     8.5160 ha         1 Q27       0.131000
     42 H25         -4.0500     3.5880     5.9040 h1         1 Q27       0.033700
     43 H25A        -2.4820     3.5870     6.7230 h1         1 Q27       0.033700
     44 H26         -3.0520     4.7670     3.9790 hc         1 Q27       0.049033
     45 H26A        -1.4750     4.7500     4.7810 hc         1 Q27       0.049033
     46 H26B        -2.8080     5.6880     5.4700 hc         1 Q27       0.049033
@<TRIPOS>BOND
     1     1     2 ar
     2     1     6 ar
     3     1    11 1
     4     2     3 ar
     5     3     4 ar
     6     3    12 1
     7     4     5 ar
     8     5     6 ar
     9     5     7 ar
    10     6    10 ar
    11     7     8 ar
    12     8     9 ar
    13     8    14 1
    14     9    10 ar
    15     9    13 1
    16    14    15 ar
    17    14    19 ar
    18    15    16 ar
    19    15    24 1
    20    16    17 ar
    21    17    18 ar
    22    18    19 ar
    23    18    23 ar
    24    19    20 ar
    25    20    21 ar
    26    21    22 ar
    27    22    23 ar
    28    24    25 1
    29    25    26 1
    30     7    27 1
    31    10    28 1
    32    11    29 1
    33    11    30 1
    34    12    31 1
    35    12    32 1
    36    13    33 1
    37    13    34 1
    38    13    35 1
    39    16    36 1
    40    17    37 1
    41    20    38 1
    42    21    39 1
    43    22    40 1
    44    23    41 1
    45    25    42 1
    46    25    43 1
    47    26    44 1
    48    26    45 1
    49    26    46 1
@<TRIPOS>SUBSTRUCTURE
     1 Q27         1 TEMP              0 ****  ****    0 ROOT
