@<TRIPOS>MOLECULE
Q28
   59    63     1     0     0
SMALL
bcc


@<TRIPOS>ATOM
      1 CBG          0.0000     0.0000     0.0000 ca         1 Q28      -0.122000
      2 CBF          1.3910     0.0000     0.0000 ca         1 Q28      -0.068000
      3 CBE          2.0920     0.0000     1.1680 ca         1 Q28      -0.111000
      4 CBD          1.4080     0.0010     2.3950 ca         1 Q28      -0.129300
      5 CBC          2.1040     0.0020     3.6180 ca         1 Q28      -0.051000
      6 CBB          1.3730     0.0020     4.7740 ca         1 Q28      -0.225300
      7 CBA         -0.0180     0.0020     4.7170 ca         1 Q28       0.410200
      8 NAZ         -0.6610     0.0010     3.5740 nb         1 Q28      -0.588000
      9 CAY         -0.0080     0.0010     2.4100 ca         1 Q28       0.354600
     10 CAX         -0.7070     0.0000     1.1830 ca         1 Q28      -0.137700
     11 NAW         -2.1020     0.0000     1.1680 ns         1 Q28      -0.002100
     12 CAU         -2.7650    -0.4910     0.1020 c          1 Q28       0.583700
     13 OAV         -2.1520    -1.0260    -0.8020 o          1 Q28      -0.645100
     14 CAR         -4.2350    -0.3800     0.0320 ca         1 Q28      -0.180600
     15 CAS         -4.9240    -0.8880    -1.0730 ca         1 Q28      -0.036000
     16 CAT         -6.2950    -0.7830    -1.1360 ca         1 Q28      -0.133500
     17 CAQ         -4.9420     0.2300     1.0720 ca         1 Q28      -0.036000
     18 CAP         -6.3140     0.3310     1.0040 ca         1 Q28      -0.133500
     19 CAO         -6.9950    -0.1720    -0.1000 ca         1 Q28      -0.068400
     20 NAN         -8.3840    -0.0670    -0.1660 ns         1 Q28      -0.027100
     21 CAL         -9.0030     1.0180     0.3390 c          1 Q28       0.559100
     22 OAM         -8.3620     1.8630     0.9270 o          1 Q28      -0.640100
     23 CAK        -10.4920     1.1830     0.1730 c3         1 Q28      -0.089400
     24 CAJ        -10.9380     2.4890     0.8320 c3         1 Q28      -0.043700
     25 CAI        -12.4270     2.6530     0.6660 cc         1 Q28       0.287900
     26 NAH        -13.0810     1.7290     0.0300 nd         1 Q28      -0.553100
     27 CAG        -14.4220     1.8090    -0.1570 ca         1 Q28       0.153400
     28 CAB        -15.1260     0.8150    -0.8400 ca         1 Q28      -0.085300
     29 CAA        -14.4000    -0.3850    -1.3910 c3         1 Q28       0.074200
     30 CAC        -16.4880     0.9370    -1.0070 ca         1 Q28      -0.066000
     31 CAD        -17.1710     2.0370    -0.5050 ca         1 Q28      -0.123000
     32 CAE        -16.4980     3.0300     0.1720 ca         1 Q28      -0.022000
     33 CAF        -15.1200     2.9260     0.3520 ca         1 Q28      -0.210600
     34 CBI        -14.3490     3.9540     1.0670 c          1 Q28       0.618100
     35 OBJ        -14.8900     4.9410     1.5300 o          1 Q28      -0.660500
     36 NBH        -13.0160     3.7570     1.1940 ns         1 Q28      -0.004400
     37 HBG         -0.5340     0.0000    -0.9420 ha         1 Q28       0.159000
     38 HBF          1.9250    -0.0000    -0.9430 ha         1 Q28       0.104000
     39 HBE          3.1750     0.0000     1.1500 ha         1 Q28       0.107000
     40 HBC          3.1870     0.0010     3.6440 ha         1 Q28       0.111000
     41 HBB          1.8770     0.0030     5.7330 ha         1 Q28       0.112000
     42 HBA         -0.5840     0.0020     5.6410 h4         1 Q28      -0.022900
     43 HAW         -2.6110     0.3810     1.9410 hn         1 Q28       0.188500
     44 HAS         -4.3790    -1.3640    -1.8800 ha         1 Q28       0.117000
     45 HAQ         -4.4110     0.6210     1.9320 ha         1 Q28       0.117000
     46 HAT         -6.8290    -1.1750    -1.9930 ha         1 Q28       0.129000
     47 HAP         -6.8620     0.8040     1.8100 ha         1 Q28       0.129000
     48 HAN         -8.9120    -0.7510    -0.6710 hn         1 Q28       0.170500
     49 HAK1       -11.0020     0.3500     0.6410 hc         1 Q28       0.046700
     50 HAK2       -10.7360     1.2090    -0.8820 hc         1 Q28       0.046700
     51 HAJ1       -10.4280     3.3230     0.3640 hc         1 Q28       0.042700
     52 HAJ2       -10.6930     2.4630     1.8870 hc         1 Q28       0.042700
     53 HBH        -12.4590     4.4320     1.6800 hn         1 Q28       0.184500
     54 HAA1       -15.1080    -1.0410    -1.8830 hc         1 Q28       0.009367
     55 HAA2       -13.6540    -0.0590    -2.1050 hc         1 Q28       0.009367
     56 HAA3       -13.9170    -0.9180    -0.5810 hc         1 Q28       0.009367
     57 HAC        -17.0330     0.1650    -1.5370 ha         1 Q28       0.107000
     58 HAD        -18.2420     2.1140    -0.6480 ha         1 Q28       0.108000
     59 HAE        -17.0360     3.8860     0.5620 ha         1 Q28       0.125000
@<TRIPOS>BOND
     1     1     2 ar  
     2     1    10 ar  
     3     1    37 1   
     4     2     3 ar  
     5     2    38 1   
     6     3     4 ar  
     7     3    39 1   
     8     4     5 ar  
     9     4     9 ar  
    10     5     6 ar  
    11     5    40 1   
    12     6     7 ar  
    13     6    41 1   
    14     7     8 ar  
    15     7    42 1   
    16     8     9 ar  
    17     9    10 ar  
    18    10    11 1   
    19    11    12 1   
    20    11    43 1   
    21    12    13 2   
    22    12    14 1   
    23    14    15 ar  
    24    14    17 ar  
    25    15    16 ar  
    26    15    44 1   
    27    16    19 ar  
    28    16    46 1   
    29    17    18 ar  
    30    17    45 1   
    31    18    19 ar  
    32    18    47 1   
    33    19    20 1   
    34    20    21 1   
    35    20    48 1   
    36    21    22 2   
    37    21    23 1   
    38    23    24 1   
    39    23    49 1   
    40    23    50 1   
    41    24    25 1   
    42    24    51 1   
    43    24    52 1   
    44    25    26 2   
    45    25    36 1   
    46    26    27 1   
    47    27    28 ar  
    48    27    33 ar  
    49    28    29 1   
    50    28    30 ar  
    51    29    54 1   
    52    29    55 1   
    53    29    56 1   
    54    30    31 ar  
    55    30    57 1   
    56    31    32 ar  
    57    31    58 1   
    58    32    33 ar  
    59    32    59 1   
    60    33    34 1   
    61    34    35 2   
    62    34    36 1   
    63    36    53 1   
@<TRIPOS>SUBSTRUCTURE
     1 Q28         1 TEMP              0 ****  ****    0 ROOT
