@<TRIPOS>MOLECULE
molecule
   59    63     1     0     0
SMALL
bcc


@<TRIPOS>ATOM
      1 CBG          0.0000     0.0000     0.0000 ca         1 Q28      -0.140000
      2 CBF          1.3910     0.0000     0.0000 ca         1 Q28      -0.100000
      3 CBE          2.0920     0.0000     1.1680 ca         1 Q28      -0.140000
      4 CBD          1.4080     0.0010     2.3950 ca         1 Q28      -0.134300
      5 CBC          2.1040     0.0020     3.6180 ca         1 Q28      -0.078000
      6 CBB          1.3730     0.0020     4.7740 ca         1 Q28      -0.256300
      7 CBA         -0.0180     0.0020     4.7170 ca         1 Q28       0.427200
      8 NAZ         -0.6610     0.0010     3.5740 nb         1 Q28      -0.695000
      9 CAY         -0.0080     0.0010     2.4100 ca         1 Q28       0.394600
     10 CAX         -0.7070     0.0000     1.1830 ca         1 Q28       0.017300
     11 NAW         -2.1020     0.0000     1.1680 ns         1 Q28      -0.452100
     12 CAU         -2.7650    -0.4910     0.1020 c          1 Q28       0.676700
     13 OAV         -2.1520    -1.0260    -0.8020 o          1 Q28      -0.604100
     14 CAR         -4.2350    -0.3800     0.0320 ca         1 Q28      -0.170600
     15 CAS         -4.9240    -0.8880    -1.0730 ca         1 Q28      -0.065000
     16 CAT         -6.2950    -0.7830    -1.1360 ca         1 Q28      -0.159000
     17 CAQ         -4.9420     0.2300     1.0720 ca         1 Q28      -0.065000
     18 CAP         -6.3140     0.3310     1.0040 ca         1 Q28      -0.159000
     19 CAO         -6.9950    -0.1720    -0.1000 ca         1 Q28       0.079600
     20 NAN         -8.3840    -0.0670    -0.1660 ns         1 Q28      -0.473100
     21 CAL         -9.0030     1.0180     0.3390 c          1 Q28       0.655100
     22 OAM         -8.3620     1.8630     0.9270 o          1 Q28      -0.600100
     23 CAK        -10.4920     1.1830     0.1730 c3         1 Q28      -0.140400
     24 CAJ        -10.9380     2.4890     0.8320 c3         1 Q28      -0.102700
     25 CAI        -12.4270     2.6530     0.6660 cc         1 Q28       0.494900
     26 NAH        -13.0810     1.7290     0.0300 nd         1 Q28      -0.661100
     27 CAG        -14.4220     1.8090    -0.1570 ca         1 Q28       0.193400
     28 CAB        -15.1260     0.8150    -0.8400 ca         1 Q28      -0.076300
     29 CAA        -14.4000    -0.3850    -1.3910 c3         1 Q28      -0.033800
     30 CAC        -16.4880     0.9370    -1.0070 ca         1 Q28      -0.093000
     31 CAD        -17.1710     2.0370    -0.5050 ca         1 Q28      -0.149000
     32 CAE        -16.4980     3.0300     0.1720 ca         1 Q28      -0.056000
     33 CAF        -15.1200     2.9260     0.3520 ca         1 Q28      -0.201600
     34 CBI        -14.3490     3.9540     1.0670 c          1 Q28       0.708100
     35 OBJ        -14.8900     4.9410     1.5300 o          1 Q28      -0.618500
     36 NBH        -13.0160     3.7570     1.1940 ns         1 Q28      -0.469400
     37 HBG         -0.5340     0.0000    -0.9420 ha         1 Q28       0.177000
     38 HBF          1.9250    -0.0000    -0.9430 ha         1 Q28       0.135000
     39 HBE          3.1750     0.0000     1.1500 ha         1 Q28       0.132000
     40 HBC          3.1870     0.0010     3.6440 ha         1 Q28       0.141000
     41 HBB          1.8770     0.0030     5.7330 ha         1 Q28       0.137000
     42 HBA         -0.5840     0.0020     5.6410 h4         1 Q28       0.021100
     43 HAW         -2.6110     0.3810     1.9410 hn         1 Q28       0.343500
     44 HAS         -4.3790    -1.3640    -1.8800 ha         1 Q28       0.147000
     45 HAQ         -4.4110     0.6210     1.9320 ha         1 Q28       0.147000
     46 HAT         -6.8290    -1.1750    -1.9930 ha         1 Q28       0.152500
     47 HAP         -6.8620     0.8040     1.8100 ha         1 Q28       0.152500
     48 HAN         -8.9120    -0.7510    -0.6710 hn         1 Q28       0.328500
     49 HAK1       -11.0020     0.3500     0.6410 hc         1 Q28       0.082700
     50 HAK2       -10.7360     1.2090    -0.8820 hc         1 Q28       0.082700
     51 HAJ1       -10.4280     3.3230     0.3640 hc         1 Q28       0.080700
     52 HAJ2       -10.6930     2.4630     1.8870 hc         1 Q28       0.080700
     53 HBH        -12.4590     4.4320     1.6800 hn         1 Q28       0.340500
     54 HAA1       -15.1080    -1.0410    -1.8830 hc         1 Q28       0.045367
     55 HAA2       -13.6540    -0.0590    -2.1050 hc         1 Q28       0.045367
     56 HAA3       -13.9170    -0.9180    -0.5810 hc         1 Q28       0.045367
     57 HAC        -17.0330     0.1650    -1.5370 ha         1 Q28       0.136000
     58 HAD        -18.2420     2.1140    -0.6480 ha         1 Q28       0.137000
     59 HAE        -17.0360     3.8860     0.5620 ha         1 Q28       0.155000
@<TRIPOS>BOND
     1     1     2 ar
     2     1    10 ar
     3     2     3 ar
     4     3     4 ar
     5     4     5 ar
     6     4     9 ar
     7     5     6 ar
     8     6     7 ar
     9     7     8 ar
    10     8     9 ar
    11     9    10 ar
    12    10    11 1
    13    11    12 1
    14    12    13 2
    15    12    14 1
    16    14    15 ar
    17    14    17 ar
    18    15    16 ar
    19    16    19 ar
    20    17    18 ar
    21    18    19 ar
    22    19    20 1
    23    20    21 1
    24    21    22 2
    25    21    23 1
    26    23    24 1
    27    24    25 1
    28    25    26 2
    29    25    36 1
    30    26    27 1
    31    27    28 ar
    32    27    33 ar
    33    28    29 1
    34    28    30 ar
    35    30    31 ar
    36    31    32 ar
    37    32    33 ar
    38    33    34 1
    39    34    35 2
    40    34    36 1
    41     1    37 1
    42     2    38 1
    43     3    39 1
    44     5    40 1
    45     6    41 1
    46     7    42 1
    47    11    43 1
    48    15    44 1
    49    17    45 1
    50    16    46 1
    51    18    47 1
    52    20    48 1
    53    23    49 1
    54    23    50 1
    55    24    51 1
    56    24    52 1
    57    36    53 1
    58    29    54 1
    59    29    55 1
    60    29    56 1
    61    30    57 1
    62    31    58 1
    63    32    59 1
@<TRIPOS>SUBSTRUCTURE
     1 Q28         1 TEMP              0 ****  ****    0 ROOT
