@<TRIPOS>MOLECULE
Q2N
   34    36     1     0     0
SMALL
bcc


@<TRIPOS>ATOM
      1 C10          0.0000     0.0000     0.0000 cc         1 Q2N       0.416300
      2 N12         -0.8020     0.0010    -1.1340 ns         1 Q2N      -0.061400
      3 C13         -0.2380    -0.0040    -2.3580 c          1 Q2N       0.538100
      4 C15         -0.2400    -0.0100    -4.8190 ca         1 Q2N      -0.092300
      5 C17          0.9700     1.1780    -6.5090 ca         1 Q2N      -0.128500
      6 C20          0.1530    -1.2110    -5.3800 ca         1 Q2N      -0.056000
      7 C01         -1.5410     0.0210     5.3420 ca         1 Q2N      -0.073000
      8 C02         -0.5080     0.0190     6.2690 ca         1 Q2N      -0.221300
      9 C03          0.8010     0.0120     5.8270 ca         1 Q2N       0.402200
     10 N04          1.0810     0.0080     4.5400 nb         1 Q2N      -0.575000
     11 C05          0.1220     0.0090     3.6210 ca         1 Q2N       0.343300
     12 C06         -1.2190     0.0100     3.9960 ca         1 Q2N      -0.190300
     13 C07          0.4840     0.0040     2.1840 cd         1 Q2N       0.279300
     14 C08          1.7620     0.0000     1.7620 cc         1 Q2N      -0.101400
     15 S09          1.7620     0.0000     0.0000 ss         1 Q2N      -0.247300
     16 N11         -0.4310     0.0050     1.2220 nd         1 Q2N      -0.611000
     17 C14         -1.1090    -0.0040    -3.5880 c3         1 Q2N      -0.028100
     18 C16          0.1690     1.1840    -5.3830 ca         1 Q2N      -0.056000
     19 C18          1.3560    -0.0240    -7.0780 ca         1 Q2N       0.108900
     20 C19          0.9510    -1.2190    -6.5090 ca         1 Q2N      -0.128500
     21 F21          2.1390    -0.0300    -8.1790 f          1 Q2N      -0.128900
     22 O22          0.9690    -0.0100    -2.4700 o          1 Q2N      -0.588100
     23 H1          -1.7980     0.0050    -1.0420 hn         1 Q2N       0.175500
     24 H2           1.2880     2.1150    -6.9510 ha         1 Q2N       0.119000
     25 H3          -0.1640    -2.1470    -4.9350 ha         1 Q2N       0.106500
     26 H4          -2.5750     0.0240     5.6640 ha         1 Q2N       0.108000
     27 H5          -0.7270     0.0250     7.3300 ha         1 Q2N       0.112000
     28 H6           1.6090     0.0100     6.5490 h4         1 Q2N      -0.020900
     29 H7          -2.0000     0.0110     3.2440 ha         1 Q2N       0.130000
     30 H8           2.6400    -0.0000     2.3970 h4         1 Q2N       0.176000
     31 H9          -1.7390    -0.8860    -3.5860 hc         1 Q2N       0.034700
     32 H10         -1.7310     0.8830    -3.5900 hc         1 Q2N       0.034700
     33 H11         -0.1370     2.1240    -4.9400 ha         1 Q2N       0.106500
     34 H12          1.2550    -2.1600    -6.9510 ha         1 Q2N       0.119000
@<TRIPOS>BOND
     1     1     2 1   
     2     1    15 1   
     3     1    16 2   
     4     2     3 1   
     5     2    23 1   
     6     3    17 1   
     7     3    22 2   
     8     4     6 ar  
     9     4    17 1   
    10     4    18 ar  
    11     5    18 ar  
    12     5    19 ar  
    13     5    24 1   
    14     6    20 ar  
    15     6    25 1   
    16     7     8 ar  
    17     7    12 ar  
    18     7    26 1   
    19     8     9 ar  
    20     8    27 1   
    21     9    10 ar  
    22     9    28 1   
    23    10    11 ar  
    24    11    12 ar  
    25    11    13 1   
    26    12    29 1   
    27    13    14 2   
    28    13    16 1   
    29    14    15 1   
    30    14    30 1   
    31    17    31 1   
    32    17    32 1   
    33    18    33 1   
    34    19    20 ar  
    35    19    21 1   
    36    20    34 1   
@<TRIPOS>SUBSTRUCTURE
     1 Q2N         1 TEMP              0 ****  ****    0 ROOT
