@<TRIPOS>MOLECULE
molecule
   34    36     1     0     0
SMALL
bcc


@<TRIPOS>ATOM
      1 C10          0.0000     0.0000     0.0000 cc         1 Q2N       0.565300
      2 N12         -0.8020     0.0010    -1.1340 ns         1 Q2N      -0.521400
      3 C13         -0.2380    -0.0040    -2.3580 c          1 Q2N       0.652100
      4 C15         -0.2400    -0.0100    -4.8190 ca         1 Q2N      -0.093300
      5 C17          0.9700     1.1780    -6.5090 ca         1 Q2N      -0.164000
      6 C20          0.1530    -1.2110    -5.3800 ca         1 Q2N      -0.083000
      7 C01         -1.5410     0.0210     5.3420 ca         1 Q2N      -0.099000
      8 C02         -0.5080     0.0190     6.2690 ca         1 Q2N      -0.255300
      9 C03          0.8010     0.0120     5.8270 ca         1 Q2N       0.421200
     10 N04          1.0810     0.0080     4.5400 nb         1 Q2N      -0.691000
     11 C05          0.1220     0.0090     3.6210 ca         1 Q2N       0.399300
     12 C06         -1.2190     0.0100     3.9960 ca         1 Q2N      -0.218300
     13 C07          0.4840     0.0040     2.1840 cd         1 Q2N       0.327300
     14 C08          1.7620     0.0000     1.7620 cc         1 Q2N      -0.182400
     15 S09          1.7620     0.0000     0.0000 ss         1 Q2N      -0.121300
     16 N11         -0.4310     0.0050     1.2220 nd         1 Q2N      -0.735000
     17 C14         -1.1090    -0.0040    -3.5880 c3         1 Q2N      -0.099100
     18 C16          0.1690     1.1840    -5.3830 ca         1 Q2N      -0.083000
     19 C18          1.3560    -0.0240    -7.0780 ca         1 Q2N       0.140900
     20 C19          0.9510    -1.2190    -6.5090 ca         1 Q2N      -0.164000
     21 F21          2.1390    -0.0300    -8.1790 f          1 Q2N      -0.139900
     22 O22          0.9690    -0.0100    -2.4700 o          1 Q2N      -0.566100
     23 H1          -1.7980     0.0050    -1.0420 hn         1 Q2N       0.342500
     24 H2           1.2880     2.1150    -6.9510 ha         1 Q2N       0.147000
     25 H3          -0.1640    -2.1470    -4.9350 ha         1 Q2N       0.136000
     26 H4          -2.5750     0.0240     5.6640 ha         1 Q2N       0.138000
     27 H5          -0.7270     0.0250     7.3300 ha         1 Q2N       0.136000
     28 H6           1.6090     0.0100     6.5490 h4         1 Q2N       0.023100
     29 H7          -2.0000     0.0110     3.2440 ha         1 Q2N       0.157000
     30 H8           2.6400    -0.0000     2.3970 h4         1 Q2N       0.200000
     31 H9          -1.7390    -0.8860    -3.5860 hc         1 Q2N       0.072700
     32 H10         -1.7310     0.8830    -3.5900 hc         1 Q2N       0.072700
     33 H11         -0.1370     2.1240    -4.9400 ha         1 Q2N       0.136000
     34 H12          1.2550    -2.1600    -6.9510 ha         1 Q2N       0.147000
@<TRIPOS>BOND
     1    21    19 1
     2     5    19 ar
     3     5    18 ar
     4    19    20 ar
     5    18     4 ar
     6    15    14 1
     7    15     1 1
     8    20     6 ar
     9    22     3 2
    10    14    13 2
    11     4     6 ar
    12     4    17 1
    13     3    17 1
    14     3     2 1
    15     1     2 1
    16     1    16 2
    17    10     9 ar
    18    10    11 ar
    19    13    16 1
    20    13    11 1
    21     9     8 ar
    22    11    12 ar
    23     8     7 ar
    24    12     7 ar
    25     2    23 1
    26     5    24 1
    27     6    25 1
    28     7    26 1
    29     8    27 1
    30     9    28 1
    31    12    29 1
    32    14    30 1
    33    17    31 1
    34    17    32 1
    35    18    33 1
    36    20    34 1
@<TRIPOS>SUBSTRUCTURE
     1 Q2N         1 TEMP              0 ****  ****    0 ROOT
