@<TRIPOS>MOLECULE
molecule
   30    31     1     0     0
SMALL
bcc


@<TRIPOS>ATOM
      1 C            0.0000     0.0000     0.0000 c          1 Q2R       0.632700
      2 O            1.2140     0.0000     0.0000 o          1 Q2R      -0.506000
      3 C1           0.1170     0.0030    -2.3840 c3         1 Q2R       0.141700
      4 C10          3.6060     0.5150     3.1590 ca         1 Q2R      -0.112600
      5 C11          4.4530     1.5080     3.8540 c          1 Q2R       0.885200
      6 C12          4.1940    -0.5690     2.5020 ca         1 Q2R      -0.079000
      7 C13          3.4040    -1.4950     1.8540 ca         1 Q2R      -0.167000
      8 C14          2.0290    -1.3580     1.8490 ca         1 Q2R      -0.093000
      9 C2          -0.7370     0.0000     1.2780 ca         1 Q2R      -0.133600
     10 C3          -2.1270     0.1310     1.2870 ca         1 Q2R      -0.087000
     11 C4          -2.8110     0.1300     2.4850 ca         1 Q2R      -0.168000
     12 C5          -2.1270     0.0010     3.6820 ca         1 Q2R      -0.106000
     13 C6          -0.7530    -0.1270     3.6930 ca         1 Q2R      -0.134000
     14 C7          -0.0450    -0.1360     2.4940 cp         1 Q2R       0.066000
     15 C8           1.4290    -0.2810     2.5010 cp         1 Q2R      -0.101000
     16 C9           2.2200     0.6560     3.1640 ca         1 Q2R      -0.078000
     17 O1          -0.6740     0.0030    -1.1660 os         1 Q2R      -0.444900
     18 O2           5.7920     1.3670     3.8550 o          1 Q2R      -0.839800
     19 O3           3.9410     2.4490     4.4260 o          1 Q2R      -0.839800
     20 H2           0.7300    -0.8900    -2.4160 h1         1 Q2R       0.043700
     21 H            0.7530     0.8790    -2.4020 h1         1 Q2R       0.043700
     22 H1          -0.5440     0.0180    -3.2430 h1         1 Q2R       0.043700
     23 H8           5.2710    -0.6820     2.5020 ha         1 Q2R       0.152000
     24 H9           3.8630    -2.3340     1.3450 ha         1 Q2R       0.105000
     25 H10          1.4160    -2.0900     1.3370 ha         1 Q2R       0.101000
     26 H3          -2.6680     0.2310     0.3530 ha         1 Q2R       0.136000
     27 H4          -3.8900     0.2310     2.4890 ha         1 Q2R       0.120000
     28 H5          -2.6750     0.0050     4.6170 ha         1 Q2R       0.122000
     29 H6          -0.2270    -0.2290     4.6340 ha         1 Q2R       0.150000
     30 H7           1.7590     1.4940     3.6720 ha         1 Q2R       0.146000
@<TRIPOS>BOND
     1     3    17 1
     2    17     1 1
     3    10    11 ar
     4    10     9 ar
     5     1     9 1
     6     1     2 2
     7    11    12 ar
     8     9    14 ar
     9    19     5 1
    10    12    13 ar
    11     5    18 1
    12     5     4 1
    13    14    13 ar
    14    14    15 1
    15    16     4 ar
    16    16    15 ar
    17     4     6 ar
    18    15     8 ar
    19     6     7 ar
    20     8     7 ar
    21     3    20 1
    22     3    21 1
    23     3    22 1
    24     6    23 1
    25     7    24 1
    26     8    25 1
    27    10    26 1
    28    11    27 1
    29    12    28 1
    30    13    29 1
    31    16    30 1
@<TRIPOS>SUBSTRUCTURE
     1 Q2R         1 TEMP              0 ****  ****    0 ROOT
