@<TRIPOS>MOLECULE
molecule
   28    30     1     0     0
SMALL
bcc


@<TRIPOS>ATOM
      1 N            0.0000     0.0000     0.0000 na         1 Q2S      -0.189400
      2 O           -3.9820     0.0110     9.3520 o          1 Q2S      -0.838300
      3 C1          -2.4540     0.0040     7.4410 ca         1 Q2S      -0.105600
      4 C10          1.3690     0.0000     0.0000 cc         1 Q2S      -0.122100
      5 C11          1.8270     0.0000     1.2610 cd         1 Q2S      -0.199200
      6 C12          0.6560     0.0000     2.1420 ca         1 Q2S      -0.104800
      7 C13          0.4860     0.0010     3.5260 ca         1 Q2S      -0.092000
      8 C14         -2.2780     0.0030     6.0570 ca         1 Q2S      -0.092000
      9 C2          -1.3390     0.0100     8.2820 ca         1 Q2S      -0.087000
     10 C3          -0.0670     0.0100     7.7460 ca         1 Q2S      -0.166000
     11 C4           0.1120     0.0040     6.3760 ca         1 Q2S      -0.141000
     12 C5          -0.9930     0.0040     5.5250 cp         1 Q2S      -0.078000
     13 C6          -0.7980     0.0020     4.0540 cp         1 Q2S      -0.028000
     14 C7          -1.9070     0.0020     3.2030 ca         1 Q2S      -0.094000
     15 C8          -1.7450     0.0000     1.8480 ca         1 Q2S      -0.153000
     16 C9          -0.4680     0.0000     1.2940 ca         1 Q2S      -0.052200
     17 O1          -4.7830     0.0000     7.2810 o          1 Q2S      -0.838300
     18 H5          -0.5750    -0.0000    -0.8190 hn         1 Q2S       0.285700
     19 H6           1.9910    -0.0000    -0.8870 h4         1 Q2S       0.151000
     20 H7           2.8650     0.0000     1.5690 ha         1 Q2S       0.145000
     21 H8           1.3390     0.1450     4.1770 ha         1 Q2S       0.134000
     22 H9          -3.1350    -0.0870     5.4020 ha         1 Q2S       0.146000
     23 H           -1.4720     0.0140     9.3570 ha         1 Q2S       0.154000
     24 H1           0.7950     0.0160     8.4020 ha         1 Q2S       0.105000
     25 H2           1.1130    -0.0030     5.9620 ha         1 Q2S       0.106000
     26 H3          -2.9060     0.0020     3.6240 ha         1 Q2S       0.153000
     27 H4          -2.6140     0.0000     1.2010 ha         1 Q2S       0.117000
     28 C           -3.8150     0.0050     8.0140 c          1 Q2S       0.883200
@<TRIPOS>BOND
     1     1     4 1
     2     1    16 1
     3    15    16 ar
     4    15    14 ar
     5    17    28 1
     6     4     5 2
     7    16     6 ar
     8    14    13 ar
     9     5     6 1
    10     6     7 ar
    11    28     2 1
    12    28     3 1
    13     8     3 ar
    14     8    12 ar
    15    13     7 ar
    16    13    12 1
    17     3     9 ar
    18    12    11 ar
    19     9    10 ar
    20    11    10 ar
    21     1    18 1
    22     4    19 1
    23     5    20 1
    24     7    21 1
    25     8    22 1
    26     9    23 1
    27    10    24 1
    28    11    25 1
    29    14    26 1
    30    15    27 1
@<TRIPOS>SUBSTRUCTURE
     1 Q2S         1 TEMP              0 ****  ****    0 ROOT
