@<TRIPOS>MOLECULE
Q2T
   60    64     1     0     0
SMALL
bcc


@<TRIPOS>ATOM
      1 C32          0.0000     0.0000     0.0000 c3         1 Q2T       0.007900
      2 C31          1.5300     0.0000     0.0000 c3         1 Q2T      -0.023400
      3 C30          2.0390     0.0000     1.4440 c3         1 Q2T      -0.035400
      4 C29          3.5690     0.0000     1.4440 c3         1 Q2T       0.199400
      5 O28          4.0450     0.0000     2.7910 os         1 Q2T      -0.294900
      6 C26          5.3920    -0.0000     2.9710 ca         1 Q2T       0.044800
      7 C25          6.2460     0.0000     1.8750 ca         1 Q2T       0.299200
      8 N24          7.5550     0.0000     2.0350 nb         1 Q2T      -0.539000
      9 C23          8.1110    -0.0000     3.2280 ca         1 Q2T       0.348200
     10 C27          5.9310     0.0060     4.2490 ca         1 Q2T      -0.081000
     11 C22          7.3240     0.0000     4.3810 ca         1 Q2T      -0.163200
     12 C9           7.9520     0.0020     5.7190 cc         1 Q2T       0.153400
     13 N8           7.7500    -0.8810     6.6810 nd         1 Q2T      -0.310700
     14 N7           8.4570    -0.5800     7.7130 nd         1 Q2T      -0.036000
     15 C1           9.1550     0.5150     7.4720 cc         1 Q2T      -0.392600
     16 C6          10.0730     1.2740     8.2330 cc         1 Q2T       0.467600
     17 C14         10.4110     0.8430     9.6360 c3         1 Q2T      -0.040400
     18 N5          10.6310     2.3440     7.7330 nd         1 Q2T      -0.584000
     19 N2           8.8510     0.9080     6.1890 na         1 Q2T       0.501800
     20 C3           9.4540     2.0380     5.6700 ca         1 Q2T      -0.281600
     21 C13          9.1750     2.4720     4.3820 ca         1 Q2T      -0.131000
     22 C12          9.7910     3.6030     3.8870 ca         1 Q2T      -0.062300
     23 C11         10.6890     4.3130     4.6690 ca         1 Q2T      -0.067000
     24 C10         10.9790     3.9010     5.9500 ca         1 Q2T      -0.123300
     25 C4          10.3520     2.7640     6.4750 ca         1 Q2T       0.375600
     26 C15          9.4850     4.0700     2.4870 c3         1 Q2T       0.206100
     27 N16          8.3480     4.9990     2.5190 n3         1 Q2T      -0.532600
     28 C21          8.1700     5.6570     1.2160 c3         1 Q2T       0.102800
     29 C20          7.0160     6.6580     1.3090 c3         1 Q2T       0.214900
     30 O19          5.8330     5.9750     1.7380 os         1 Q2T      -0.411600
     31 C18          5.9720     5.3230     3.0030 c3         1 Q2T       0.214900
     32 C17          7.1160     4.3100     2.9270 c3         1 Q2T       0.102800
     33 H321        -0.3610    -0.8850     0.5090 hc         1 Q2T       0.003367
     34 H322        -0.3610     0.8840     0.5120 hc         1 Q2T       0.003367
     35 H323        -0.3610     0.0020    -1.0210 hc         1 Q2T       0.003367
     36 H311         1.8910     0.8850    -0.5110 hc         1 Q2T       0.012700
     37 H312         1.8910    -0.8850    -0.5110 hc         1 Q2T       0.012700
     38 H301         1.6770     0.8840     1.9540 hc         1 Q2T       0.026700
     39 H302         1.6780    -0.8850     1.9540 hc         1 Q2T       0.026700
     40 H291         3.9310    -0.8840     0.9340 h1         1 Q2T       0.004700
     41 H292         3.9300     0.8850     0.9340 h1         1 Q2T       0.004700
     42 H25          5.8310     0.0000     0.8750 h4         1 Q2T      -0.000900
     43 H27          5.2900     0.0060     5.1220 ha         1 Q2T       0.137000
     44 H23          9.1910    -0.0020     3.3160 h4         1 Q2T      -0.006900
     45 H141        11.1270     1.5350    10.0630 hc         1 Q2T       0.025033
     46 H142        10.8390    -0.1510     9.6150 hc         1 Q2T       0.025033
     47 H143         9.5110     0.8370    10.2380 hc         1 Q2T       0.025033
     48 H13          8.4740     1.9230     3.7640 ha         1 Q2T       0.149000
     49 H11         11.1660     5.2000     4.2690 ha         1 Q2T       0.116000
     50 H151         9.2370     3.2160     1.8680 h1         1 Q2T       0.019700
     51 H152        10.3520     4.5740     2.0770 h1         1 Q2T       0.019700
     52 H10         11.6820     4.4610     6.5540 ha         1 Q2T       0.125000
     53 H211         7.9410     4.9120     0.4640 h1         1 Q2T       0.020200
     54 H212         9.0800     6.1810     0.9490 h1         1 Q2T       0.020200
     55 H171         6.8720     3.5450     2.1990 h1         1 Q2T       0.020200
     56 H172         7.2610     3.8560     3.9000 h1         1 Q2T       0.020200
     57 H201         6.8430     7.1010     0.3360 h1         1 Q2T       0.013950
     58 H202         7.2650     7.4310     2.0260 h1         1 Q2T       0.013950
     59 H181         6.1930     6.0600     3.7660 h1         1 Q2T       0.013950
     60 H182         5.0500     4.8090     3.2460 h1         1 Q2T       0.013950
@<TRIPOS>BOND
     1     1     2 1   
     2     1    33 1   
     3     1    34 1   
     4     1    35 1   
     5     2     3 1   
     6     2    36 1   
     7     2    37 1   
     8     3     4 1   
     9     3    38 1   
    10     3    39 1   
    11     4     5 1   
    12     4    40 1   
    13     4    41 1   
    14     5     6 1   
    15     6     7 ar  
    16     6    10 ar  
    17     7     8 ar  
    18     7    42 1   
    19     8     9 ar  
    20     9    11 ar  
    21     9    44 1   
    22    10    11 ar  
    23    10    43 1   
    24    11    12 1   
    25    12    13 2   
    26    12    19 1   
    27    13    14 1   
    28    14    15 2   
    29    15    16 1   
    30    15    19 1   
    31    16    17 1   
    32    16    18 2   
    33    17    45 1   
    34    17    46 1   
    35    17    47 1   
    36    18    25 1   
    37    19    20 1   
    38    20    21 ar  
    39    20    25 ar  
    40    21    22 ar  
    41    21    48 1   
    42    22    23 ar  
    43    22    26 1   
    44    23    24 ar  
    45    23    49 1   
    46    24    25 ar  
    47    24    52 1   
    48    26    27 1   
    49    26    50 1   
    50    26    51 1   
    51    27    28 1   
    52    27    32 1   
    53    28    29 1   
    54    28    53 1   
    55    28    54 1   
    56    29    30 1   
    57    29    57 1   
    58    29    58 1   
    59    30    31 1   
    60    31    32 1   
    61    31    59 1   
    62    31    60 1   
    63    32    55 1   
    64    32    56 1   
@<TRIPOS>SUBSTRUCTURE
     1 Q2T         1 TEMP              0 ****  ****    0 ROOT
