@<TRIPOS>MOLECULE
Q2Y
   62    65     1     0     0
SMALL
bcc


@<TRIPOS>ATOM
      1 O36          0.0000     0.0000     0.0000 o          1 Q2Y      -0.889800
      2 C6           1.3570     0.0000     0.0000 c          1 Q2Y       0.975600
      3 O35          2.0320     0.0000     1.0210 o          1 Q2Y      -0.889800
      4 C7           1.9350    -0.0140    -1.3930 c3         1 Q2Y      -0.137400
      5 C27          3.3190     0.6210    -1.4260 c3         1 Q2Y      -0.063300
      6 C18          3.8890     0.5770    -2.8350 c          1 Q2Y       0.595100
      7 O32          3.6310     1.4350    -3.6790 o          1 Q2Y      -0.592100
      8 N5           3.2960     2.0030    -1.0200 ns         1 Q2Y      -0.155900
      9 C10          4.3880     2.6330    -0.4350 c          1 Q2Y       0.596100
     10 O33          5.4690     2.0960    -0.2070 o          1 Q2Y      -0.646100
     11 C9           4.0900     4.0850    -0.1130 c3         1 Q2Y      -0.033100
     12 C12          5.2670     4.8180     0.4750 cc         1 Q2Y       0.029600
     13 C21          5.5990     4.9390     1.7880 cd         1 Q2Y      -0.115000
     14 C23          6.7860     5.7110     1.9510 cd         1 Q2Y      -0.067000
     15 C14          7.2940     6.1390     0.7430 cc         1 Q2Y      -0.105400
     16 S37          6.3410     5.6100    -0.5780 ss         1 Q2Y      -0.217800
     17 C17          8.5020     6.9540     0.4900 c3         1 Q2Y       0.147300
     18 N3           9.6900     6.1530     0.3090 ns         1 Q2Y      -0.202900
     19 C19         10.4750     5.7370     1.3720 c          1 Q2Y       0.612700
     20 O34         10.2520     5.9940     2.5530 o          1 Q2Y      -0.635100
     21 C20         11.6780     4.9420     1.0180 ca         1 Q2Y      -0.196600
     22 C22         12.7670     4.9680     1.8650 ca         1 Q2Y      -0.011000
     23 C11         13.8980     4.2220     1.5320 ca         1 Q2Y      -0.190000
     24 C26         11.6710     4.2040    -0.1480 ca         1 Q2Y      -0.011000
     25 C25         12.8020     3.4590    -0.4820 ca         1 Q2Y      -0.190000
     26 C24         13.9150     3.4680     0.3580 ca         1 Q2Y       0.048600
     27 N2          15.0580     2.7130     0.0220 nu         1 Q2Y      -0.302300
     28 C13         15.3610     1.8750    -1.0690 ca         1 Q2Y       0.403900
     29 C29         14.4160     1.7000    -2.0460 ca         1 Q2Y       0.190900
     30 N4          14.6410     0.9130    -3.1140 nb         1 Q2Y      -0.490000
     31 C31         15.8340     0.2960    -3.1970 ca         1 Q2Y       0.224300
     32 C30         16.1220    -0.5300    -4.2800 ca         1 Q2Y      -0.112300
     33 C8          16.8060     0.4760    -2.1950 ca         1 Q2Y       0.325300
     34 N1          16.5600     1.2670    -1.1350 nb         1 Q2Y      -0.619000
     35 C16         18.0300    -0.1790    -2.3130 ca         1 Q2Y      -0.163300
     36 C28         18.3080    -1.0040    -3.4020 ca         1 Q2Y      -0.085000
     37 C15         17.3500    -1.1810    -4.3880 ca         1 Q2Y      -0.126000
     38 C1           4.7560    -0.6080    -3.1730 c3         1 Q2Y      -0.098100
     39 H71          2.0080    -1.0390    -1.7360 hc         1 Q2Y       0.022700
     40 H72          1.2770     0.5350    -2.0560 hc         1 Q2Y       0.022700
     41 H27          3.9750     0.0700    -0.7630 h1         1 Q2Y       0.074700
     42 HN5          2.4580     2.5310    -1.1640 hn         1 Q2Y       0.182500
     43 H91          3.2700     4.1220     0.5950 hc         1 Q2Y       0.040200
     44 H92          3.7870     4.5880    -1.0230 hc         1 Q2Y       0.040200
     45 H21          5.0350     4.5040     2.6050 ha         1 Q2Y       0.136000
     46 H23          7.2350     5.9350     2.9100 ha         1 Q2Y       0.130000
     47 H171         8.6550     7.6210     1.3300 h1         1 Q2Y       0.026200
     48 H172         8.3410     7.5470    -0.4030 h1         1 Q2Y       0.026200
     49 HN3          9.9580     5.8910    -0.6190 hn         1 Q2Y       0.178500
     50 H22         12.7440     5.5570     2.7740 ha         1 Q2Y       0.121500
     51 H11         14.7630     4.2290     2.1840 ha         1 Q2Y       0.130500
     52 H26         10.8010     4.2040    -0.7940 ha         1 Q2Y       0.121500
     53 H25         12.8150     2.8730    -1.3930 ha         1 Q2Y       0.130500
     54 HN2         15.8000     2.7880     0.6900 hn         1 Q2Y       0.272800
     55 H29         13.4630     2.2080    -1.9570 h4         1 Q2Y       0.038100
     56 H30         15.4440    -0.7210    -5.1030 ha         1 Q2Y       0.114000
     57 H16         18.8460    -0.1070    -1.6040 ha         1 Q2Y       0.114000
     58 H28         19.2640    -1.5060    -3.4850 ha         1 Q2Y       0.103000
     59 H15         17.5730    -1.8200    -5.2350 ha         1 Q2Y       0.107000
     60 H11A         5.3420    -0.8860    -2.3050 hc         1 Q2Y       0.021700
     61 H12          5.4200    -0.3490    -3.9890 hc         1 Q2Y       0.021700
     62 H13          4.1300    -1.4410    -3.4680 hc         1 Q2Y       0.021700
@<TRIPOS>BOND
     1     1     2 1   
     2     2     3 1   
     3     2     4 1   
     4     4     5 1   
     5     4    39 1   
     6     4    40 1   
     7     5     6 1   
     8     5     8 1   
     9     5    41 1   
    10     6     7 2   
    11     6    38 1   
    12     8     9 1   
    13     8    42 1   
    14     9    10 2   
    15     9    11 1   
    16    11    12 1   
    17    11    43 1   
    18    11    44 1   
    19    12    13 2   
    20    12    16 1   
    21    13    14 1   
    22    13    45 1   
    23    14    15 2   
    24    14    46 1   
    25    15    16 1   
    26    15    17 1   
    27    17    18 1   
    28    17    47 1   
    29    17    48 1   
    30    18    19 1   
    31    18    49 1   
    32    19    20 2   
    33    19    21 1   
    34    21    22 ar  
    35    21    24 ar  
    36    22    23 ar  
    37    22    50 1   
    38    23    26 ar  
    39    23    51 1   
    40    24    25 ar  
    41    24    52 1   
    42    25    26 ar  
    43    25    53 1   
    44    26    27 1   
    45    27    28 1   
    46    27    54 1   
    47    28    29 ar  
    48    28    34 ar  
    49    29    30 ar  
    50    29    55 1   
    51    30    31 ar  
    52    31    32 ar  
    53    31    33 ar  
    54    32    37 ar  
    55    32    56 1   
    56    33    34 ar  
    57    33    35 ar  
    58    35    36 ar  
    59    35    57 1   
    60    36    37 ar  
    61    36    58 1   
    62    37    59 1   
    63    38    60 1   
    64    38    61 1   
    65    38    62 1   
@<TRIPOS>SUBSTRUCTURE
     1 Q2Y         1 TEMP              0 ****  ****    0 ROOT
