@<TRIPOS>MOLECULE
Q31
   52    54     1     0     0
SMALL
bcc


@<TRIPOS>ATOM
      1 C1           0.0000     0.0000     0.0000 ca         1 Q31      -0.124000
      2 C2           1.3860     0.0000     0.0000 ca         1 Q31      -0.118000
      3 C3          -3.4180     7.5400    -2.4260 cc         1 Q31      -0.457600
      4 C4          -1.5500     7.5150    -3.5680 cc         1 Q31       0.195400
      5 C5          -0.0040     0.0010     2.4040 ca         1 Q31      -0.051600
      6 C6          -0.6950     0.0000     1.1880 ca         1 Q31      -0.077300
      7 C7           2.0860     0.0000     1.1940 ca         1 Q31       0.023100
      8 C8           1.3960     0.0010     2.4030 ca         1 Q31       0.080100
      9 C9          -2.5250     6.7480    -1.8030 cd         1 Q31       0.328600
     10 C10         -0.7440     0.0020     3.6780 c          1 Q31       0.981200
     11 C11         -2.4610     4.5280    -0.7400 c          1 Q31       0.564100
     12 C12          3.5470     0.4130     2.8310 c3         1 Q31       0.421200
     13 C13         -6.2610     2.8450     1.8130 c3         1 Q31      -0.002100
     14 C14         -4.1590     3.3060     3.0820 c3         1 Q31      -0.002100
     15 C15         -2.2030     0.0010     1.1790 c3         1 Q31       0.040900
     16 C16         -2.7570     5.9890    -0.5210 c3         1 Q31      -0.101700
     17 C17         -4.2370     1.4280     1.4350 c3         1 Q31      -0.018400
     18 C18         -2.3120     2.2320     0.0600 c3         1 Q31       0.037000
     19 C19         -4.7330     2.8430     1.7410 c3         1 Q31      -0.099700
     20 C20         -2.7130     1.4380     1.3050 c3         1 Q31      -0.088700
     21 N21         -1.3930     6.7510    -2.5220 nd         1 Q31      -0.566000
     22 N22         -2.7990     8.0270    -3.5460 na         1 Q31       0.235100
     23 N23         -2.6010     3.6530     0.2740 ns         1 Q31      -0.215900
     24 O24         -1.1290    -1.0460     4.1590 o          1 Q31      -0.882300
     25 O25         -0.9960     1.1650     4.3100 o          1 Q31      -0.882300
     26 O26         -2.0980     4.1410    -1.8310 o          1 Q31      -0.644100
     27 O27          3.4260     0.0000     1.4570 os         1 Q31      -0.334900
     28 O28          2.3000     0.0010     3.4220 os         1 Q31      -0.288900
     29 H1          -0.5390    -0.0010    -0.9400 ha         1 Q31       0.101000
     30 H2           1.9250    -0.0000    -0.9400 ha         1 Q31       0.095000
     31 H22         -3.2060     8.6540    -4.2130 hn         1 Q31       0.111700
     32 H151        -2.5690    -0.5860     2.0120 hc         1 Q31       0.027700
     33 H152        -2.5580    -0.4280     0.2510 hc         1 Q31       0.027700
     34 H161        -2.1050     6.3780     0.2520 hc         1 Q31       0.026200
     35 H162        -3.7900     6.1060    -0.2150 hc         1 Q31       0.026200
     36 H23         -2.8340     3.9830     1.1900 hn         1 Q31       0.203500
     37 H121         4.3780    -0.0940     3.3070 h2         1 Q31      -0.001800
     38 H122         3.6600     1.4880     2.8950 h2         1 Q31      -0.001800
     39 H131        -6.5880     2.1510     2.5770 hc         1 Q31       0.005867
     40 H132        -6.6680     2.5460     0.8550 hc         1 Q31       0.005867
     41 H133        -6.6090     3.8410     2.0570 hc         1 Q31       0.005867
     42 H19         -4.4080     3.5170     0.9570 hc         1 Q31       0.038700
     43 H141        -4.4870     2.6350     3.8660 hc         1 Q31       0.005867
     44 H142        -3.0760     3.3010     3.0320 hc         1 Q31       0.005867
     45 H143        -4.5050     4.3100     3.2960 hc         1 Q31       0.005867
     46 H20         -2.2780     1.8990     2.1830 hc         1 Q31       0.096700
     47 H171        -4.5270     0.7620     2.2400 hc         1 Q31       0.018200
     48 H172        -4.6770     1.0840     0.5070 hc         1 Q31       0.018200
     49 H181        -2.8740     1.8740    -0.7930 h1         1 Q31       0.031700
     50 H182        -1.2530     2.1030    -0.1250 h1         1 Q31       0.031700
     51 H3          -4.4300     7.7510    -2.1030 h4         1 Q31       0.148000
     52 H4          -0.8020     7.7070    -4.3280 h5         1 Q31       0.016100
@<TRIPOS>BOND
     1     1     2 ar  
     2     1     6 ar  
     3     1    29 1   
     4     2     7 ar  
     5     2    30 1   
     6     3     9 2   
     7     3    22 1   
     8     3    51 1   
     9     4    21 2   
    10     4    22 1   
    11     4    52 1   
    12     5     6 ar  
    13     5     8 ar  
    14     5    10 1   
    15     6    15 1   
    16     7     8 ar  
    17     7    27 1   
    18     8    28 1   
    19     9    16 1   
    20     9    21 1   
    21    10    24 1   
    22    10    25 1   
    23    11    16 1   
    24    11    23 1   
    25    11    26 2   
    26    12    27 1   
    27    12    28 1   
    28    12    37 1   
    29    12    38 1   
    30    13    19 1   
    31    13    39 1   
    32    13    40 1   
    33    13    41 1   
    34    14    19 1   
    35    14    43 1   
    36    14    44 1   
    37    14    45 1   
    38    15    20 1   
    39    15    32 1   
    40    15    33 1   
    41    16    34 1   
    42    16    35 1   
    43    17    19 1   
    44    17    20 1   
    45    17    47 1   
    46    17    48 1   
    47    18    20 1   
    48    18    23 1   
    49    18    49 1   
    50    18    50 1   
    51    19    42 1   
    52    20    46 1   
    53    22    31 1   
    54    23    36 1   
@<TRIPOS>SUBSTRUCTURE
     1 Q31         1 TEMP              0 ****  ****    0 ROOT
