@<TRIPOS>MOLECULE
molecule
   65    70     1     0     0
SMALL
bcc


@<TRIPOS>ATOM
      1 C1           0.0000     0.0000     0.0000 c3         1 Q3B       0.129700
      2 O2           1.4290     0.0000     0.0000 os         1 Q3B      -0.328900
      3 C3           2.0460     0.0000     1.2110 ca         1 Q3B       0.124100
      4 C4           3.4320     0.0000     1.2840 ca         1 Q3B      -0.173000
      5 C5           4.0590     0.0000     2.5140 ca         1 Q3B      -0.107000
      6 C6           3.3030    -0.0010     3.6780 ca         1 Q3B       0.034600
      7 C7           1.9170    -0.0010     3.6060 ca         1 Q3B      -0.107000
      8 C8           1.2900     0.0040     2.3750 ca         1 Q3B      -0.173000
      9 N9           3.9390    -0.0010     4.9270 ns         1 Q3B      -0.489100
     10 C10          5.1140     0.6400     5.0850 c          1 Q3B       0.778100
     11 O11          5.5760     1.2980     4.1720 o          1 Q3B      -0.624100
     12 N12          5.7770     0.5540     6.2560 ns         1 Q3B      -0.492100
     13 C13          6.9470     1.2960     6.4540 ca         1 Q3B       0.055600
     14 C14          7.2330     1.8220     7.7080 ca         1 Q3B      -0.159000
     15 C15          8.3880     2.5550     7.9090 ca         1 Q3B      -0.142000
     16 C16          9.2630     2.7700     6.8640 ca         1 Q3B      -0.091000
     17 C17          8.9850     2.2470     5.6010 ca         1 Q3B      -0.093500
     18 C18          7.8240     1.5020     5.4000 ca         1 Q3B      -0.088000
     19 C19          9.9230     2.4770     4.4780 cc         1 Q3B       0.443800
     20 C20         11.3050     2.3770     4.5290 cd         1 Q3B      -0.271500
     21 N21         11.7560     2.6740     3.2610 na         1 Q3B      -0.176900
     22 C22         10.6730     2.9370     2.5000 cd         1 Q3B       0.444400
     23 N23          9.5920     2.8150     3.2190 nc         1 Q3B      -0.682000
     24 C24         13.1540     2.6990     2.8200 c3         1 Q3B       0.044300
     25 C25         13.5900     1.2870     2.4260 c3         1 Q3B       0.107100
     26 C26         15.0950     1.2670     2.0780 c3         1 Q3B      -0.110400
     27 C27         15.1940     0.2710     0.9000 c3         1 Q3B      -0.115400
     28 C28         13.7370    -0.1910     0.6760 c3         1 Q3B       0.124400
     29 O29         12.9240     0.8750     1.2130 os         1 Q3B      -0.407600
     30 C30         12.1230     2.0280     5.6980 cd         1 Q3B       0.494800
     31 N31         11.6530     1.6490     6.8430 nc         1 Q3B      -0.553100
     32 C32         12.5310     1.3630     7.8150 ca         1 Q3B      -0.179200
     33 C33         12.3030     0.9310     9.1490 ca         1 Q3B       0.787200
     34 N34         13.3430     0.7070     9.9380 nb         1 Q3B      -0.824000
     35 C35         14.5810     0.8770     9.5100 ca         1 Q3B       0.738900
     36 N36         14.8450     1.2760     8.2840 nb         1 Q3B      -0.755000
     37 C37         13.8630     1.5260     7.4180 ca         1 Q3B       0.512600
     38 S38         13.8810     2.0540     5.7380 ss         1 Q3B      -0.212500
     39 N39         11.0140     0.7480     9.6170 nv         1 Q3B      -0.976500
     40 H11C        -0.3610    -0.0010    -1.0210 h1         1 Q3B       0.040033
     41 H12C        -0.3610    -0.8840     0.5120 h1         1 Q3B       0.040033
     42 H13C        -0.3610     0.8850     0.5090 h1         1 Q3B       0.040033
     43 H4           4.0220     0.0010     0.3750 ha         1 Q3B       0.142000
     44 H8           0.2090     0.0040     2.3170 ha         1 Q3B       0.142000
     45 H5           5.1410     0.0010     2.5700 ha         1 Q3B       0.148500
     46 H7           1.3260     0.0000     4.5140 ha         1 Q3B       0.148500
     47 H9           3.5370    -0.5040     5.6930 hn         1 Q3B       0.314500
     48 H12          5.4450    -0.0570     6.9750 hn         1 Q3B       0.315500
     49 H14          6.5490     1.6560     8.5310 ha         1 Q3B       0.124000
     50 H18          7.6030     1.0940     4.4220 ha         1 Q3B       0.179000
     51 H15          8.6050     2.9620     8.8890 ha         1 Q3B       0.128000
     52 H16         10.1660     3.3470     7.0240 ha         1 Q3B       0.141000
     53 H22         10.6970     3.2030     1.4500 h5         1 Q3B       0.075100
     54 H241        13.7800     3.0590     3.6270 h1         1 Q3B       0.078200
     55 H242        13.2510     3.3580     1.9660 h1         1 Q3B       0.078200
     56 H25         13.3810     0.5850     3.2250 h1         1 Q3B       0.066700
     57 H261        15.4250     2.2510     1.7700 hc         1 Q3B       0.057200
     58 H262        15.6740     0.9110     2.9220 hc         1 Q3B       0.057200
     59 H271        15.8210    -0.5700     1.1680 hc         1 Q3B       0.056200
     60 H272        15.5720     0.7690     0.0150 hc         1 Q3B       0.056200
     61 H281        13.5490    -1.1130     1.2130 h1         1 Q3B       0.055200
     62 H282        13.5410    -0.3170    -0.3820 h1         1 Q3B       0.055200
     63 H391        10.2350     0.8910     9.0060 hn         1 Q3B       0.455300
     64 H392        10.8620     0.4440    10.5590 hn         1 Q3B       0.455300
     65 H35         15.4030     0.6830    10.1880 h5         1 Q3B       0.065100
@<TRIPOS>BOND
     1     1     2 1
     2     2     3 1
     3     3     4 ar
     4     3     8 ar
     5     4     5 ar
     6     5     6 ar
     7     6     7 ar
     8     6     9 1
     9     7     8 ar
    10     9    10 1
    11    10    11 2
    12    10    12 1
    13    12    13 1
    14    13    14 ar
    15    13    18 ar
    16    14    15 ar
    17    15    16 ar
    18    16    17 ar
    19    17    18 ar
    20    17    19 1
    21    19    20 2
    22    19    23 1
    23    20    21 1
    24    20    30 1
    25    21    22 1
    26    21    24 1
    27    22    23 2
    28    24    25 1
    29    25    26 1
    30    25    29 1
    31    26    27 1
    32    27    28 1
    33    28    29 1
    34    30    31 2
    35    30    38 1
    36    31    32 1
    37    32    33 ar
    38    32    37 ar
    39    33    34 ar
    40    33    39 1
    41    34    35 ar
    42    35    36 ar
    43    36    37 ar
    44    37    38 1
    45     1    40 1
    46     1    41 1
    47     1    42 1
    48     4    43 1
    49     8    44 1
    50     5    45 1
    51     7    46 1
    52     9    47 1
    53    12    48 1
    54    14    49 1
    55    18    50 1
    56    15    51 1
    57    16    52 1
    58    22    53 1
    59    24    54 1
    60    24    55 1
    61    25    56 1
    62    26    57 1
    63    26    58 1
    64    27    59 1
    65    27    60 1
    66    28    61 1
    67    28    62 1
    68    39    63 1
    69    39    64 1
    70    35    65 1
@<TRIPOS>SUBSTRUCTURE
     1 Q3B         1 TEMP              0 ****  ****    0 ROOT
