@<TRIPOS>MOLECULE
Q3B
   65    70     1     0     0
SMALL
bcc


@<TRIPOS>ATOM
      1 C1           0.0000     0.0000     0.0000 c3         1 Q3B       0.244700
      2 O2           1.4290     0.0000     0.0000 os         1 Q3B      -0.306900
      3 C3           2.0460     0.0000     1.2110 ca         1 Q3B       0.136100
      4 C4           3.4320     0.0000     1.2840 ca         1 Q3B      -0.158500
      5 C5           4.0590     0.0000     2.5140 ca         1 Q3B      -0.075500
      6 C6           3.3030    -0.0010     3.6780 ca         1 Q3B      -0.115400
      7 C7           1.9170    -0.0010     3.6060 ca         1 Q3B      -0.075500
      8 C8           1.2900     0.0040     2.3750 ca         1 Q3B      -0.158500
      9 N9           3.9390    -0.0010     4.9270 ns         1 Q3B      -0.051100
     10 C10          5.1140     0.6400     5.0850 c          1 Q3B       0.548100
     11 O11          5.5760     1.2980     4.1720 o          1 Q3B      -0.671100
     12 N12          5.7770     0.5540     6.2560 ns         1 Q3B      -0.055100
     13 C13          6.9470     1.2960     6.4540 ca         1 Q3B      -0.086400
     14 C14          7.2330     1.8220     7.7080 ca         1 Q3B      -0.137000
     15 C15          8.3880     2.5550     7.9090 ca         1 Q3B      -0.112000
     16 C16          9.2630     2.7700     6.8640 ca         1 Q3B      -0.083000
     17 C17          8.9850     2.2470     5.6010 ca         1 Q3B      -0.084500
     18 C18          7.8240     1.5020     5.4000 ca         1 Q3B      -0.071000
     19 C19          9.9230     2.4770     4.4780 cc         1 Q3B       0.415800
     20 C20         11.3050     2.3770     4.5290 cd         1 Q3B      -0.446500
     21 N21         11.7560     2.6740     3.2610 na         1 Q3B       0.312100
     22 C22         10.6730     2.9370     2.5000 cd         1 Q3B       0.256400
     23 N23          9.5920     2.8150     3.2190 nc         1 Q3B      -0.598000
     24 C24         13.1540     2.6990     2.8200 c3         1 Q3B      -0.069700
     25 C25         13.5900     1.2870     2.4260 c3         1 Q3B       0.149100
     26 C26         15.0950     1.2670     2.0780 c3         1 Q3B      -0.052400
     27 C27         15.1940     0.2710     0.9000 c3         1 Q3B      -0.059400
     28 C28         13.7370    -0.1910     0.6760 c3         1 Q3B       0.212400
     29 O29         12.9240     0.8750     1.2130 os         1 Q3B      -0.402600
     30 C30         12.1230     2.0280     5.6980 cd         1 Q3B       0.486800
     31 N31         11.6530     1.6490     6.8430 nc         1 Q3B      -0.422100
     32 C32         12.5310     1.3630     7.8150 ca         1 Q3B      -0.231200
     33 C33         12.3030     0.9310     9.1490 ca         1 Q3B       0.581200
     34 N34         13.3430     0.7070     9.9380 nb         1 Q3B      -0.723000
     35 C35         14.5810     0.8770     9.5100 ca         1 Q3B       0.692900
     36 N36         14.8450     1.2760     8.2840 nb         1 Q3B      -0.639000
     37 C37         13.8630     1.5260     7.4180 ca         1 Q3B       0.518600
     38 S38         13.8810     2.0540     5.7380 ss         1 Q3B      -0.324500
     39 N39         11.0140     0.7480     9.6170 nv         1 Q3B      -0.475500
     40 H11C        -0.3610    -0.0010    -1.0210 h1         1 Q3B      -0.003967
     41 H12C        -0.3610    -0.8840     0.5120 h1         1 Q3B      -0.003967
     42 H13C        -0.3610     0.8850     0.5090 h1         1 Q3B      -0.003967
     43 H4           4.0220     0.0010     0.3750 ha         1 Q3B       0.118500
     44 H8           0.2090     0.0040     2.3170 ha         1 Q3B       0.118500
     45 H5           5.1410     0.0010     2.5700 ha         1 Q3B       0.122000
     46 H7           1.3260     0.0000     4.5140 ha         1 Q3B       0.122000
     47 H9           3.5370    -0.5040     5.6930 hn         1 Q3B       0.156500
     48 H12          5.4450    -0.0570     6.9750 hn         1 Q3B       0.157500
     49 H14          6.5490     1.6560     8.5310 ha         1 Q3B       0.099000
     50 H18          7.6030     1.0940     4.4220 ha         1 Q3B       0.158000
     51 H15          8.6050     2.9620     8.8890 ha         1 Q3B       0.098000
     52 H16         10.1660     3.3470     7.0240 ha         1 Q3B       0.115000
     53 H22         10.6970     3.2030     1.4500 h5         1 Q3B       0.029100
     54 H241        13.7800     3.0590     3.6270 h1         1 Q3B       0.057700
     55 H242        13.2510     3.3580     1.9660 h1         1 Q3B       0.057700
     56 H25         13.3810     0.5850     3.2250 h1         1 Q3B       0.036700
     57 H261        15.4250     2.2510     1.7700 hc         1 Q3B       0.028700
     58 H262        15.6740     0.9110     2.9220 hc         1 Q3B       0.028700
     59 H271        15.8210    -0.5700     1.1680 hc         1 Q3B       0.024200
     60 H272        15.5720     0.7690     0.0150 hc         1 Q3B       0.024200
     61 H281        13.5490    -1.1130     1.2130 h1         1 Q3B       0.012200
     62 H282        13.5410    -0.3170    -0.3820 h1         1 Q3B       0.012200
     63 H391        10.2350     0.8910     9.0060 hn         1 Q3B       0.284300
     64 H392        10.8620     0.4440    10.5590 hn         1 Q3B       0.284300
     65 H35         15.4030     0.6830    10.1880 h5         1 Q3B       0.000100
@<TRIPOS>BOND
     1     1     2 1   
     2     1    40 1   
     3     1    41 1   
     4     1    42 1   
     5     2     3 1   
     6     3     4 ar  
     7     3     8 ar  
     8     4     5 ar  
     9     4    43 1   
    10     5     6 ar  
    11     5    45 1   
    12     6     7 ar  
    13     6     9 1   
    14     7     8 ar  
    15     7    46 1   
    16     8    44 1   
    17     9    10 1   
    18     9    47 1   
    19    10    11 2   
    20    10    12 1   
    21    12    13 1   
    22    12    48 1   
    23    13    14 ar  
    24    13    18 ar  
    25    14    15 ar  
    26    14    49 1   
    27    15    16 ar  
    28    15    51 1   
    29    16    17 ar  
    30    16    52 1   
    31    17    18 ar  
    32    17    19 1   
    33    18    50 1   
    34    19    20 2   
    35    19    23 1   
    36    20    21 1   
    37    20    30 1   
    38    21    22 1   
    39    21    24 1   
    40    22    23 2   
    41    22    53 1   
    42    24    25 1   
    43    24    54 1   
    44    24    55 1   
    45    25    26 1   
    46    25    29 1   
    47    25    56 1   
    48    26    27 1   
    49    26    57 1   
    50    26    58 1   
    51    27    28 1   
    52    27    59 1   
    53    27    60 1   
    54    28    29 1   
    55    28    61 1   
    56    28    62 1   
    57    30    31 2   
    58    30    38 1   
    59    31    32 1   
    60    32    33 ar  
    61    32    37 ar  
    62    33    34 ar  
    63    33    39 1   
    64    34    35 ar  
    65    35    36 ar  
    66    35    65 1   
    67    36    37 ar  
    68    37    38 1   
    69    39    63 1   
    70    39    64 1   
@<TRIPOS>SUBSTRUCTURE
     1 Q3B         1 TEMP              0 ****  ****    0 ROOT
