@<TRIPOS>MOLECULE
molecule
   19    20     1     0     0
SMALL
bcc


@<TRIPOS>ATOM
      1 O13          0.0000     0.0000     0.0000 o          1 Q3C      -0.831800
      2 C11          1.2150     0.0000     0.0000 c          1 Q3C       0.882200
      3 O12          1.8880     0.0000     1.1680 o          1 Q3C      -0.831800
      4 C7           1.9530    -0.0070    -1.2780 ca         1 Q3C      -0.221900
      5 C3           1.2640    -0.0070    -2.4860 ca         1 Q3C      -0.079000
      6 C9           3.3600    -0.0070    -1.2840 ca         1 Q3C       0.469200
      7 N5           4.0390    -0.0120    -2.4020 nb         1 Q3C      -0.733000
      8 C2           3.4310    -0.0180    -3.5950 ca         1 Q3C       0.407600
      9 C6           4.1790    -0.0220    -4.7840 ca         1 Q3C      -0.168300
     10 C10          3.5400    -0.0280    -5.9860 ca         1 Q3C      -0.146000
     11 C8           2.1490    -0.0280    -6.0610 ca         1 Q3C      -0.159000
     12 C4           1.3890    -0.0230    -4.9310 ca         1 Q3C      -0.103000
     13 C1           2.0150    -0.0070    -3.6730 ca         1 Q3C      -0.166300
     14 H2           0.2130     0.2540    -2.5100 ha         1 Q3C       0.155000
     15 H3           3.8930    -0.0030    -0.3410 h4         1 Q3C       0.050100
     16 H4           5.2610    -0.0220    -4.7440 ha         1 Q3C       0.131000
     17 H5           4.1230    -0.0320    -6.8990 ha         1 Q3C       0.110000
     18 H6           1.6650    -0.0330    -7.0300 ha         1 Q3C       0.110000
     19 H7           0.3080    -0.0240    -5.0010 ha         1 Q3C       0.124000
@<TRIPOS>BOND
     1    11    10 ar
     2    11    12 ar
     3    10     9 ar
     4    12    13 ar
     5     9     8 ar
     6    13     8 ar
     7    13     5 ar
     8     8     7 ar
     9     5     4 ar
    10     7     6 ar
    11     4     6 ar
    12     4     2 1
    13     2     1 1
    14     2     3 1
    15     5    14 1
    16     6    15 1
    17     9    16 1
    18    10    17 1
    19    11    18 1
    20    12    19 1
@<TRIPOS>SUBSTRUCTURE
     1 Q3C         1 TEMP              0 ****  ****    0 ROOT
