@<TRIPOS>MOLECULE
molecule
   26    27     1     0     0
SMALL
bcc


@<TRIPOS>ATOM
      1 NBC          0.0000     0.0000     0.0000 n7         1 Q42      -0.789200
      2 CBB          1.4670     0.0000     0.0000 c3         1 Q42       0.148500
      3 CAP          2.1510     0.0000     1.3530 c3         1 Q42      -0.073400
      4 CAM          3.6660    -0.0370     1.0980 c3         1 Q42      -0.076400
      5 CAL          4.0630    -1.2540     0.2700 c3         1 Q42      -0.078400
      6 CAO          3.2700    -1.3230    -1.0460 c3         1 Q42      -0.066400
      7 CAZ          1.7970    -1.3550    -0.6830 c3         1 Q42      -0.120700
      8 CAR          0.8160    -1.3610    -1.8560 c3         1 Q42      -0.080400
      9 CBA         -0.3680    -0.4940    -1.3580 c3         1 Q42       0.050500
     10 CAU         -1.6210    -1.3270    -1.2820 c          1 Q42       0.891600
     11 OAF         -1.9780    -1.7850    -0.2220 o          1 Q42      -0.846800
     12 OAC         -2.3390    -1.5630    -2.3910 o          1 Q42      -0.846800
     13 HBB          1.8380     0.8190    -0.6040 h1         1 Q42       0.052700
     14 HBA         -0.5160     0.3460    -2.0270 h1         1 Q42       0.060700
     15 HAP1         1.8510    -0.8760     1.9160 hc         1 Q42       0.041700
     16 HAP2         1.8920     0.9010     1.8960 hc         1 Q42       0.041700
     17 HAZ          1.5890    -2.1780    -0.0090 hc         1 Q42       0.058700
     18 HAM1         4.1830    -0.0750     2.0500 hc         1 Q42       0.027200
     19 HAM2         3.9570     0.8610     0.5670 hc         1 Q42       0.027200
     20 HAL1         5.1200    -1.1960     0.0410 hc         1 Q42       0.027700
     21 HAL2         3.8690    -2.1510     0.8450 hc         1 Q42       0.027700
     22 HAO1         3.5340    -2.2230    -1.5880 hc         1 Q42       0.033700
     23 HAO2         3.4800    -0.4470    -1.6480 hc         1 Q42       0.033700
     24 HAR1         1.2710    -0.9130    -2.7320 hc         1 Q42       0.042200
     25 HAR2         0.4840    -2.3700    -2.0670 hc         1 Q42       0.042200
     26 H2          -0.3340    -0.6430     0.6910 hn         1 Q42       0.372800
@<TRIPOS>BOND
     1     1     2 1
     2     1     9 1
     3     2     3 1
     4     2     7 1
     5     3     4 1
     6     4     5 1
     7     5     6 1
     8     6     7 1
     9     7     8 1
    10     8     9 1
    11     9    10 1
    12    10    11 1
    13    10    12 1
    14     2    13 1
    15     9    14 1
    16     3    15 1
    17     3    16 1
    18     7    17 1
    19     4    18 1
    20     4    19 1
    21     5    20 1
    22     5    21 1
    23     6    22 1
    24     6    23 1
    25     8    24 1
    26     8    25 1
    27     1    26 1
@<TRIPOS>SUBSTRUCTURE
     1 Q42         1 TEMP              0 ****  ****    0 ROOT
