@<TRIPOS>MOLECULE
molecule
   74    78     1     0     0
SMALL
bcc


@<TRIPOS>ATOM
      1 C2           0.0000     0.0000     0.0000 ca         1 Q4A       0.921900
      2 C5           1.3100     0.0000     2.3550 ca         1 Q4A      -0.348600
      3 C4          -0.1060     0.0060     2.3070 ca         1 Q4A       0.516600
      4 CAO         -2.0930     0.0010    -1.0220 c3         1 Q4A       0.165800
      5 CAP         -2.7320    -0.9360    -2.0690 c3         1 Q4A      -0.083400
      6 CAQ         -2.8270    -0.3010    -3.3810 c3         1 Q4A       0.165800
      7 NAR         -1.5000     0.0720    -3.9210 n3         1 Q4A      -0.712600
      8 CAU         -1.5360     0.1750    -5.3860 c3         1 Q4A       0.154100
      9 CAS         -1.0570     1.3110    -3.3270 c3         1 Q4A       0.156800
     10 CAT         -0.1660     1.0870    -2.0910 c3         1 Q4A       0.197800
     11 NAN         -0.6640     0.0010    -1.2140 nh         1 Q4A      -0.677300
     12 N1           1.3300     0.0000     0.0000 nb         1 Q4A      -0.846000
     13 N3          -0.7130     0.0060     1.1100 nb         1 Q4A      -0.837000
     14 CAC         -0.8340     0.0110     3.5030 ca         1 Q4A      -0.283300
     15 CAD         -0.1640     0.0100     4.7070 ca         1 Q4A       0.170100
     16 OAL         -0.8690     0.0150     5.8680 os         1 Q4A      -0.310900
     17 CBI         -2.2940     0.0200     5.7630 c3         1 Q4A       0.124700
     18 CAE          1.2370     0.0040     4.7450 ca         1 Q4A       0.098100
     19 OAK          1.8760     0.0040     5.9460 os         1 Q4A      -0.314900
     20 CBJ          3.3050    -0.0020     5.9190 c3         1 Q4A       0.127700
     21 CAF          1.9670    -0.0010     3.5920 ca         1 Q4A      -0.158000
     22 C6           2.0220     0.0000     1.1310 ca         1 Q4A       0.769200
     23 NAM          3.4010    -0.0060     1.1160 nu         1 Q4A      -0.894900
     24 CAV          4.1190    -0.0060    -0.1620 c3         1 Q4A       0.240500
     25 CBA          5.5130     0.5980     0.0350 c3         1 Q4A      -0.093400
     26 CAZ          6.2790     0.5400    -1.2880 c3         1 Q4A       0.164300
     27 CAW          4.2620    -1.4430    -0.6690 c3         1 Q4A      -0.093400
     28 CAX          5.0650    -1.4420    -1.9710 c3         1 Q4A       0.164300
     29 NAY          6.3900    -0.8560    -1.7300 n3         1 Q4A      -0.728600
     30 CBB          7.2390    -0.9640    -2.9240 c3         1 Q4A       0.210100
     31 CBC          7.5290    -2.4170    -3.2040 ca         1 Q4A      -0.081300
     32 CBD          6.6850    -3.1460    -4.0200 ca         1 Q4A      -0.116500
     33 CBE          6.9510    -4.4780    -4.2770 ca         1 Q4A      -0.129000
     34 CBF          8.0620    -5.0800    -3.7170 ca         1 Q4A      -0.127000
     35 CBG          8.9060    -4.3510    -2.9000 ca         1 Q4A      -0.129000
     36 CBH          8.6420    -3.0180    -2.6480 ca         1 Q4A      -0.116500
     37 HAOA        -2.3250    -0.3560    -0.0260 h1         1 Q4A       0.061700
     38 HAP         -2.1280    -1.8310    -2.1540 hc         1 Q4A       0.057200
     39 HAPA        -3.7270    -1.2070    -1.7370 hc         1 Q4A       0.057200
     40 HAQ         -3.3030    -0.9890    -4.0690 h1         1 Q4A       0.028200
     41 HAQA        -3.4330     0.5930    -3.2950 h1         1 Q4A       0.028200
     42 HAU         -2.2420     0.9430    -5.6770 h1         1 Q4A       0.031033
     43 HAUA        -0.5500     0.4330    -5.7540 h1         1 Q4A       0.031033
     44 HAUB        -1.8410    -0.7750    -5.8070 h1         1 Q4A       0.031033
     45 HAS         -0.4950     1.8710    -4.0650 h1         1 Q4A       0.034200
     46 HASA        -1.9260     1.8860    -3.0300 h1         1 Q4A       0.034200
     47 HAT         -0.1280     2.0060    -1.5190 h1         1 Q4A       0.049700
     48 HATA         0.8330     0.8340    -2.4250 h1         1 Q4A       0.049700
     49 HAC         -1.9110    -0.1070     3.4830 ha         1 Q4A       0.159000
     50 HBI         -2.6210    -0.8760     5.2490 h1         1 Q4A       0.044367
     51 HBIA        -2.6110     0.8930     5.2060 h1         1 Q4A       0.044367
     52 HBIB        -2.7290     0.0460     6.7550 h1         1 Q4A       0.044367
     53 HBJ          3.6850    -0.0000     6.9340 h1         1 Q4A       0.039367
     54 HBJA         3.6530    -0.8890     5.4050 h1         1 Q4A       0.039367
     55 HBJB         3.6610     0.8800     5.3990 h1         1 Q4A       0.039367
     56 HAF          3.0500    -0.0050     3.6330 ha         1 Q4A       0.133000
     57 HNAM         3.9110     0.0300     1.9760 hn         1 Q4A       0.447800
     58 HAV          3.5720     0.5800    -0.8910 h1         1 Q4A       0.079700
     59 HBA          5.4170     1.6300     0.3510 hc         1 Q4A       0.056950
     60 HBAA         6.0490     0.0320     0.7870 hc         1 Q4A       0.056950
     61 HAZ          5.7480     1.1140    -2.0370 h1         1 Q4A       0.039200
     62 HAZA         7.2710     0.9520    -1.1470 h1         1 Q4A       0.039200
     63 HAW          4.7800    -2.0380     0.0740 hc         1 Q4A       0.056950
     64 HAWA         3.2790    -1.8600    -0.8520 hc         1 Q4A       0.056950
     65 HAX          4.5420    -0.8550    -2.7160 h1         1 Q4A       0.039200
     66 HAXA         5.1810    -2.4610    -2.3230 h1         1 Q4A       0.039200
     67 HBB          8.1690    -0.4360    -2.7550 h1         1 Q4A       0.039200
     68 HBBA         6.7250    -0.5290    -3.7730 h1         1 Q4A       0.039200
     69 HBD          5.8150    -2.6730    -4.4590 ha         1 Q4A       0.131000
     70 HBE          6.2890    -5.0490    -4.9170 ha         1 Q4A       0.129500
     71 HBF          8.2700    -6.1240    -3.9160 ha         1 Q4A       0.128000
     72 HBG          9.7770    -4.8230    -2.4630 ha         1 Q4A       0.129500
     73 HBH          9.3040    -2.4470    -2.0080 ha         1 Q4A       0.131000
     74 HAO         -2.4760     1.0060    -1.1530 h1         1 Q4A       0.061700
@<TRIPOS>BOND
     1     1    11 1
     2     1    12 ar
     3     1    13 ar
     4     2     3 ar
     5     2    21 ar
     6     2    22 ar
     7     3    13 ar
     8     3    14 ar
     9     4     5 1
    10     4    11 1
    11     5     6 1
    12     6     7 1
    13     7     8 1
    14     7     9 1
    15     9    10 1
    16    10    11 1
    17    12    22 ar
    18    14    15 ar
    19    15    16 1
    20    15    18 ar
    21    16    17 1
    22    18    19 1
    23    18    21 ar
    24    19    20 1
    25    22    23 1
    26    23    24 1
    27    24    25 1
    28    24    27 1
    29    25    26 1
    30    26    29 1
    31    27    28 1
    32    28    29 1
    33    29    30 1
    34    30    31 1
    35    31    32 ar
    36    31    36 ar
    37    32    33 ar
    38    33    34 ar
    39    34    35 ar
    40    35    36 ar
    41     4    74 1
    42     4    37 1
    43     5    38 1
    44     5    39 1
    45     6    40 1
    46     6    41 1
    47     8    42 1
    48     8    43 1
    49     8    44 1
    50     9    45 1
    51     9    46 1
    52    10    47 1
    53    10    48 1
    54    14    49 1
    55    17    50 1
    56    17    51 1
    57    17    52 1
    58    20    53 1
    59    20    54 1
    60    20    55 1
    61    21    56 1
    62    23    57 1
    63    24    58 1
    64    25    59 1
    65    25    60 1
    66    26    61 1
    67    26    62 1
    68    27    63 1
    69    27    64 1
    70    28    65 1
    71    28    66 1
    72    30    67 1
    73    30    68 1
    74    32    69 1
    75    33    70 1
    76    34    71 1
    77    35    72 1
    78    36    73 1
@<TRIPOS>SUBSTRUCTURE
     1 Q4A         1 TEMP              0 ****  ****    0 ROOT
