@<TRIPOS>MOLECULE
molecule
   24    25     1     0     0
SMALL
bcc


@<TRIPOS>ATOM
      1 C            0.0000     0.0000     0.0000 c          1 Q4G       0.883200
      2 O            1.2140     0.0000     0.0000 o          1 Q4G      -0.834300
      3 C1          -0.7370     0.0000     1.2810 ca         1 Q4G      -0.106600
      4 C10         -2.1370     0.0000     3.6790 ca         1 Q4G      -0.134000
      5 C11         -2.8230     0.0050     2.4800 ca         1 Q4G      -0.167000
      6 C12         -2.1340     0.0050     1.2840 ca         1 Q4G      -0.080000
      7 C2          -0.0410    -0.0100     2.4890 ca         1 Q4G      -0.083000
      8 C3          -0.7430    -0.0110     3.6890 cp         1 Q4G      -0.093000
      9 C4          -0.0090    -0.0220     4.9790 cp         1 Q4G       0.029000
     10 C5          -0.7110    -0.0220     6.1830 ca         1 Q4G      -0.153000
     11 C6          -0.0250    -0.0330     7.3800 ca         1 Q4G      -0.111000
     12 C7           1.3570    -0.0430     7.3880 ca         1 Q4G      -0.195000
     13 C8           2.0620    -0.0430     6.1950 ca         1 Q4G       0.128900
     14 C9           1.3840    -0.0370     4.9910 ca         1 Q4G      -0.165000
     15 F            3.4130    -0.0530     6.2080 f          1 Q4G      -0.151900
     16 O1          -0.6740     0.0050    -1.1650 o          1 Q4G      -0.834300
     17 H5          -2.6840    -0.0000     4.6140 ha         1 Q4G       0.106000
     18 H6          -3.9070     0.0120     2.4790 ha         1 Q4G       0.108000
     19 H7          -2.6780     0.0090     0.3470 ha         1 Q4G       0.156000
     20 H            1.0430    -0.0190     2.4930 ha         1 Q4G       0.150000
     21 H1          -1.7950    -0.0140     6.1790 ha         1 Q4G       0.134000
     22 H2          -0.5710    -0.0330     8.3160 ha         1 Q4G       0.121000
     23 H3           1.8910    -0.0490     8.3310 ha         1 Q4G       0.128000
     24 H4           1.9340    -0.0370     4.0580 ha         1 Q4G       0.165000
@<TRIPOS>BOND
     1    15    13 1
     2    12    13 ar
     3    12    11 ar
     4    13    14 ar
     5    11    10 ar
     6    14     9 ar
     7    10     9 ar
     8     9     8 1
     9     2     1 1
    10     7     8 ar
    11     7     3 ar
    12     8     4 ar
    13     1     3 1
    14     1    16 1
    15     3     6 ar
    16     4     5 ar
    17     6     5 ar
    18     4    17 1
    19     5    18 1
    20     6    19 1
    21     7    20 1
    22    10    21 1
    23    11    22 1
    24    12    23 1
    25    14    24 1
@<TRIPOS>SUBSTRUCTURE
     1 Q4G         1 TEMP              0 ****  ****    0 ROOT
