@<TRIPOS>MOLECULE
Q4Q
   43    43     1     0     0
SMALL
bcc


@<TRIPOS>ATOM
      1 S            0.0000     0.0000     0.0000 s6         1 Q4Q       0.955900
      2 N1           1.6560     0.0000     0.0000 n7         1 Q4Q      -0.601100
      3 O1          -0.3500     0.0000     1.3770 o          1 Q4Q      -0.577800
      4 C2          -2.6420    -1.2240    -1.9330 ca         1 Q4Q      -0.079500
      5 N2           4.5850     0.4160    -2.2780 n3         1 Q4Q      -0.535600
      6 O2          -0.3500     1.0880    -0.8450 o          1 Q4Q      -0.577800
      7 C3          -1.9540    -1.6960    -0.8310 ca         1 Q4Q      -0.096300
      8 C4          -0.4530    -1.5780    -0.7730 c3         1 Q4Q       0.056700
      9 C6           5.0600    -0.8160    -4.3410 c3         1 Q4Q       0.000400
     10 C7          -2.6430    -2.2760     0.2170 ca         1 Q4Q      -0.079500
     11 C8          -4.0200    -2.3840     0.1650 ca         1 Q4Q      -0.097500
     12 C9          -4.7090    -1.9120    -0.9380 ca         1 Q4Q      -0.082300
     13 C10         -4.0190    -1.3310    -1.9850 ca         1 Q4Q      -0.097500
     14 C11          2.3890     0.0240    -1.2680 c3         1 Q4Q       0.216800
     15 C12          3.8500     0.3920    -1.0060 c3         1 Q4Q       0.138800
     16 C08         -6.2100    -2.0310    -0.9960 c3         1 Q4Q       0.064200
     17 C13          5.9250     0.9920    -2.1010 c3         1 Q4Q       0.142800
     18 C14          5.8130     2.5120    -1.9660 c3         1 Q4Q       0.000400
     19 C17          4.6630    -0.9270    -2.8660 c3         1 Q4Q       0.142800
     20 H1           2.1560    -0.0160     0.8670 hn         1 Q4Q       0.351800
     21 H41C        -0.0490    -1.6170    -1.7780 h1         1 Q4Q       0.067700
     22 H42C        -0.0480    -2.3960    -0.1890 h1         1 Q4Q       0.067700
     23 H111         1.9440     0.7580    -1.9280 h1         1 Q4Q       0.021200
     24 H112         2.3400    -0.9550    -1.7310 h1         1 Q4Q       0.021200
     25 H2          -2.1020    -0.7680    -2.7540 ha         1 Q4Q       0.111500
     26 H10         -4.5590    -0.9610    -2.8490 ha         1 Q4Q       0.108000
     27 H121         3.8990     1.3700    -0.5430 h1         1 Q4Q       0.015700
     28 H122         4.2950    -0.3430    -0.3460 h1         1 Q4Q       0.015700
     29 H131         6.3790     0.5830    -1.2070 h1         1 Q4Q       0.009700
     30 H132         6.5390     0.7500    -2.9610 h1         1 Q4Q       0.009700
     31 H171         3.6980    -1.4130    -2.7880 h1         1 Q4Q       0.009700
     32 H172         5.4060    -1.5110    -2.3360 h1         1 Q4Q       0.009700
     33 H7          -2.1030    -2.6450     1.0810 ha         1 Q4Q       0.111500
     34 H61C         4.6860     0.1160    -4.7460 hc         1 Q4Q       0.007700
     35 H62C         4.6350    -1.6460    -4.8920 hc         1 Q4Q       0.007700
     36 H63C         6.1390    -0.8400    -4.4270 hc         1 Q4Q       0.007700
     37 H8          -4.5590    -2.8390     0.9860 ha         1 Q4Q       0.108000
     38 H081        -6.5440    -2.7550    -0.2630 hc         1 Q4Q       0.008033
     39 H082        -6.6570    -1.0680    -0.7810 hc         1 Q4Q       0.008033
     40 H083        -6.5090    -2.3550    -1.9860 hc         1 Q4Q       0.008033
     41 H141         4.9550     2.8630    -2.5280 hc         1 Q4Q       0.007700
     42 H142         5.6920     2.7750    -0.9220 hc         1 Q4Q       0.007700
     43 H143         6.7120     2.9760    -2.3540 hc         1 Q4Q       0.007700
@<TRIPOS>BOND
     1     1     2 1   
     2     1     3 2   
     3     1     6 2   
     4     1     8 1   
     5     2    14 1   
     6     2    20 1   
     7     4     7 ar  
     8     4    13 ar  
     9     4    25 1   
    10     5    15 1   
    11     5    17 1   
    12     5    19 1   
    13     7     8 1   
    14     7    10 ar  
    15     8    21 1   
    16     8    22 1   
    17     9    19 1   
    18     9    34 1   
    19     9    35 1   
    20     9    36 1   
    21    10    11 ar  
    22    10    33 1   
    23    11    12 ar  
    24    11    37 1   
    25    12    13 ar  
    26    12    16 1   
    27    13    26 1   
    28    14    15 1   
    29    14    23 1   
    30    14    24 1   
    31    15    27 1   
    32    15    28 1   
    33    16    38 1   
    34    16    39 1   
    35    16    40 1   
    36    17    18 1   
    37    17    29 1   
    38    17    30 1   
    39    18    41 1   
    40    18    42 1   
    41    18    43 1   
    42    19    31 1   
    43    19    32 1   
@<TRIPOS>SUBSTRUCTURE
     1 Q4Q         1 TEMP              0 ****  ****    0 ROOT
