@<TRIPOS>MOLECULE
molecule
   43    43     1     0     0
SMALL
bcc


@<TRIPOS>ATOM
      1 S            0.0000     0.0000     0.0000 s6         1 Q4Q       1.330900
      2 N1           1.6560     0.0000     0.0000 n7         1 Q4Q      -0.919100
      3 O1          -0.3500     0.0000     1.3770 o          1 Q4Q      -0.623300
      4 C2          -2.6420    -1.2240    -1.9330 ca         1 Q4Q      -0.104500
      5 N2           4.5850     0.4160    -2.2780 n3         1 Q4Q      -0.729600
      6 O2          -0.3500     1.0880    -0.8450 o          1 Q4Q      -0.623300
      7 C3          -1.9540    -1.6960    -0.8310 ca         1 Q4Q      -0.097300
      8 C4          -0.4530    -1.5780    -0.7730 c3         1 Q4Q      -0.168300
      9 C6           5.0600    -0.8160    -4.3410 c3         1 Q4Q      -0.093600
     10 C7          -2.6430    -2.2760     0.2170 ca         1 Q4Q      -0.104500
     11 C8          -4.0200    -2.3840     0.1650 ca         1 Q4Q      -0.125500
     12 C9          -4.7090    -1.9120    -0.9380 ca         1 Q4Q      -0.071300
     13 C10         -4.0190    -1.3310    -1.9850 ca         1 Q4Q      -0.125500
     14 C11          2.3890     0.0240    -1.2680 c3         1 Q4Q       0.228800
     15 C12          3.8500     0.3920    -1.0060 c3         1 Q4Q       0.154800
     16 C08         -6.2100    -2.0310    -0.9960 c3         1 Q4Q      -0.049800
     17 C13          5.9250     0.9920    -2.1010 c3         1 Q4Q       0.156300
     18 C14          5.8130     2.5120    -1.9660 c3         1 Q4Q      -0.093600
     19 C17          4.6630    -0.9270    -2.8660 c3         1 Q4Q       0.156300
     20 H1           2.1560    -0.0160     0.8670 hn         1 Q4Q       0.454800
     21 H41C        -0.0490    -1.6170    -1.7780 h1         1 Q4Q       0.100700
     22 H42C        -0.0480    -2.3960    -0.1890 h1         1 Q4Q       0.100700
     23 H111         1.9440     0.7580    -1.9280 h1         1 Q4Q       0.052200
     24 H112         2.3400    -0.9550    -1.7310 h1         1 Q4Q       0.052200
     25 H2          -2.1020    -0.7680    -2.7540 ha         1 Q4Q       0.138000
     26 H10         -4.5590    -0.9610    -2.8490 ha         1 Q4Q       0.135000
     27 H121         3.8990     1.3700    -0.5430 h1         1 Q4Q       0.041700
     28 H122         4.2950    -0.3430    -0.3460 h1         1 Q4Q       0.041700
     29 H131         6.3790     0.5830    -1.2070 h1         1 Q4Q       0.033700
     30 H132         6.5390     0.7500    -2.9610 h1         1 Q4Q       0.033700
     31 H171         3.6980    -1.4130    -2.7880 h1         1 Q4Q       0.033700
     32 H172         5.4060    -1.5110    -2.3360 h1         1 Q4Q       0.033700
     33 H7          -2.1030    -2.6450     1.0810 ha         1 Q4Q       0.138000
     34 H61C         4.6860     0.1160    -4.7460 hc         1 Q4Q       0.040700
     35 H62C         4.6350    -1.6460    -4.8920 hc         1 Q4Q       0.040700
     36 H63C         6.1390    -0.8400    -4.4270 hc         1 Q4Q       0.040700
     37 H8          -4.5590    -2.8390     0.9860 ha         1 Q4Q       0.135000
     38 H081        -6.5440    -2.7550    -0.2630 hc         1 Q4Q       0.045367
     39 H082        -6.6570    -1.0680    -0.7810 hc         1 Q4Q       0.045367
     40 H083        -6.5090    -2.3550    -1.9860 hc         1 Q4Q       0.045367
     41 H141         4.9550     2.8630    -2.5280 hc         1 Q4Q       0.040700
     42 H142         5.6920     2.7750    -0.9220 hc         1 Q4Q       0.040700
     43 H143         6.7120     2.9760    -2.3540 hc         1 Q4Q       0.040700
@<TRIPOS>BOND
     1     1     2 1
     2     1     3 2
     3     1     6 2
     4     1     8 1
     5     2    14 1
     6     4     7 ar
     7     4    13 ar
     8     5    15 1
     9     5    17 1
    10     5    19 1
    11     7     8 1
    12     7    10 ar
    13     9    19 1
    14    10    11 ar
    15    11    12 ar
    16    12    13 ar
    17    12    16 1
    18    14    15 1
    19    17    18 1
    20     2    20 1
    21     8    21 1
    22     8    22 1
    23    14    23 1
    24    14    24 1
    25     4    25 1
    26    13    26 1
    27    15    27 1
    28    15    28 1
    29    17    29 1
    30    17    30 1
    31    19    31 1
    32    19    32 1
    33    10    33 1
    34     9    34 1
    35     9    35 1
    36     9    36 1
    37    11    37 1
    38    16    38 1
    39    16    39 1
    40    16    40 1
    41    18    41 1
    42    18    42 1
    43    18    43 1
@<TRIPOS>SUBSTRUCTURE
     1 Q4Q         1 TEMP              0 ****  ****    0 ROOT
