@<TRIPOS>MOLECULE
Q5F
   33    34     1     0     0
SMALL
bcc


@<TRIPOS>ATOM
      1 C06          0.0000     0.0000     0.0000 c3         1 Q5F       0.050000
      2 C07          1.5300     0.0000     0.0000 c3         1 Q5F       0.185400
      3 C08          3.3540    -1.3830     0.6430 ca         1 Q5F       0.148100
      4 C09          3.8850    -2.5450     1.1830 ca         1 Q5F      -0.112300
      5 C10          4.2000    -0.3890     0.1740 ca         1 Q5F      -0.197000
      6 C11          5.2550    -2.7080     1.2590 ca         1 Q5F      -0.062000
      7 C12          2.9680    -3.6290     1.6890 c3         1 Q5F       0.072200
      8 C13         -1.8130    -0.0000     1.6260 c          1 Q5F       0.634700
      9 C14          5.5690    -0.5560     0.2500 ca         1 Q5F      -0.060000
     10 C15          6.0960    -1.7130     0.7950 ca         1 Q5F      -0.068600
     11 C16         -2.3010    -0.0010     3.0090 cc         1 Q5F      -0.085700
     12 C17         -3.6150    -0.0070     3.3860 cd         1 Q5F      -0.039000
     13 C18         -3.7900    -0.0060     4.7490 cd         1 Q5F      -0.144000
     14 C19         -2.6600     0.0000     5.4660 cc         1 Q5F      -0.001100
     15 N05         -0.4880     0.0000     1.3810 ns         1 Q5F      -0.192900
     16 O03          2.0060    -1.2220     0.5680 os         1 Q5F      -0.304900
     17 O04         -2.6040     0.0000     0.7020 o          1 Q5F      -0.645100
     18 S02         -1.2910    -0.0030     4.4480 ss         1 Q5F      -0.231800
     19 Cl1          7.8180    -1.9200     0.8910 cl         1 Q5F      -0.029400
     20 H1          -0.3610    -0.8850    -0.5110 h1         1 Q5F       0.036700
     21 H2          -0.3610     0.8850    -0.5110 h1         1 Q5F       0.036700
     22 H3           1.8910     0.0900    -1.0170 h1         1 Q5F       0.010200
     23 H4           1.8910     0.8360     0.5870 h1         1 Q5F       0.010200
     24 H5           3.7880     0.5180    -0.2500 ha         1 Q5F       0.121000
     25 H6           5.6700    -3.6140     1.6830 ha         1 Q5F       0.119000
     26 H7           2.3110    -3.9500     0.8890 hc         1 Q5F       0.011033
     27 H8           3.5580    -4.4710     2.0310 hc         1 Q5F       0.011033
     28 H9           2.3750    -3.2470     2.5110 hc         1 Q5F       0.011033
     29 H10          6.2310     0.2210    -0.1150 ha         1 Q5F       0.113000
     30 H11         -4.4360    -0.0110     2.6790 ha         1 Q5F       0.140000
     31 H12         -4.7710    -0.0080     5.2100 ha         1 Q5F       0.124000
     32 H13         -2.6200     0.0010     6.5490 h4         1 Q5F       0.150000
     33 H14          0.1620     0.0460     2.1410 hn         1 Q5F       0.187500
@<TRIPOS>BOND
     1     1     2 1   
     2     1    15 1   
     3     1    20 1   
     4     1    21 1   
     5     2    16 1   
     6     2    22 1   
     7     2    23 1   
     8     3     4 ar  
     9     3     5 ar  
    10     3    16 1   
    11     4     6 ar  
    12     4     7 1   
    13     5     9 ar  
    14     5    24 1   
    15     6    10 ar  
    16     6    25 1   
    17     7    26 1   
    18     7    27 1   
    19     7    28 1   
    20     8    11 1   
    21     8    15 1   
    22     8    17 2   
    23     9    10 ar  
    24     9    29 1   
    25    10    19 1   
    26    11    12 2   
    27    11    18 1   
    28    12    13 1   
    29    12    30 1   
    30    13    14 2   
    31    13    31 1   
    32    14    18 1   
    33    14    32 1   
    34    15    33 1   
@<TRIPOS>SUBSTRUCTURE
     1 Q5F         1 TEMP              0 ****  ****    0 ROOT
