@<TRIPOS>MOLECULE
Q67
   45    48     1     0     0
SMALL
bcc


@<TRIPOS>ATOM
      1 O13         0.4740   -1.5880    0.4500 o         1 Q67     -0.585100
      2 C12         1.5420   -0.9660    0.3120 c         1 Q67      0.626100
      3 C10         2.6020   -0.9550    1.4530 c3        1 Q67      0.137500
      4 C11         3.5180   -2.1540    1.1940 c3        1 Q67     -0.099100
      5 N1          2.0030   -1.0170    2.7710 nh        1 Q67     -0.705600
      6 C4          1.6510    0.1930    3.4040 ca        1 Q67      0.144600
      7 C3          2.5810    1.2530    3.4980 ca        1 Q67     -0.162000
      8 C2          2.2760    2.4090    4.2050 ca        1 Q67     -0.095000
      9 C5          0.4010    0.3420    4.0630 ca        1 Q67     -0.033600
     10 CL2        -0.7520   -0.9040    3.9890 cl        1 Q67     -0.061400
     11 C6          0.1180    1.5110    4.7810 ca        1 Q67      0.047400
     12 CL1        -1.3680    1.7000    5.5810 cl        1 Q67     -0.068400
     13 C1          1.0500    2.5490    4.8490 ca        1 Q67     -0.146000
     14 N2          1.8800   -0.2670   -0.8350 n         1 Q67     -0.466100
     15 C15         1.1380   -0.1720   -2.0270 ca        1 Q67      0.056600
     16 C20         1.8090    0.3100   -3.1760 ca        1 Q67     -0.128000
     17 C19         1.0810    0.4320   -4.3560 ca        1 Q67      0.081400
     18 N3          1.4460    0.8730   -5.6490 nc        1 Q67     -0.550100
     19 C22         0.3400    0.7720   -6.3860 cd        1 Q67      0.590200
     20 O21        -0.7910    0.2790   -5.6680 os        1 Q67     -0.305700
     21 C18        -0.3070    0.0660   -4.3780 ca        1 Q67      0.015100
     22 C17        -0.9750   -0.4090   -3.2610 ca        1 Q67     -0.088000
     23 C16        -0.2370   -0.5210   -2.0860 ca        1 Q67     -0.129000
     24 C24         0.1110    1.0830   -7.7880 ca        1 Q67     -0.083900
     25 C29         1.1560    1.5730   -8.5850 ca        1 Q67     -0.204800
     26 C28         0.8810    1.8580   -9.9350 ca        1 Q67      0.386700
     27 N4         -0.3260    1.6870  -10.5060 nb        1 Q67     -0.647000
     28 C26        -1.3170    1.2150   -9.7250 ca        1 Q67      0.386700
     29 C25        -1.1540    0.8980   -8.3650 ca        1 Q67     -0.204800
     30 H1          3.2210   -0.0120    1.3820 h1        1 Q67      0.071700
     31 H2          2.9380   -3.1080    1.2050 hc        1 Q67      0.055033
     32 H3          4.3140   -2.2100    1.9750 hc        1 Q67      0.055033
     33 H4          4.0000   -2.0360    0.1940 hc        1 Q67      0.055033
     34 H5          1.2770   -1.7120    2.8090 hn        1 Q67      0.422800
     35 H6          3.5720    1.1640    3.0270 ha        1 Q67      0.139000
     36 H7          3.0160    3.2220    4.2630 ha        1 Q67      0.141000
     37 H8          0.8170    3.4670    5.4100 ha        1 Q67      0.153000
     38 H9          2.7880    0.1430   -0.8650 hn        1 Q67      0.317500
     39 H10         2.8730    0.5880   -3.1550 ha        1 Q67      0.151000
     40 H11        -2.0380   -0.6840   -3.2960 ha        1 Q67      0.159000
     41 H12        -0.7490   -0.8970   -1.1820 ha        1 Q67      0.181000
     42 H13         2.1630    1.7330   -8.1740 ha        1 Q67      0.164500
     43 H14         1.6760    2.2460  -10.5980 h4        1 Q67      0.029100
     44 H15        -2.2980    1.0840  -10.2180 h4        1 Q67      0.029100
     45 H16        -1.9950    0.5150   -7.7700 ha        1 Q67      0.164500
@<TRIPOS>BOND
     1    1    2 2
     2    2    3 1
     3    2   14 1
     4    3    4 1
     5    3    5 1
     6    3   30 1
     7    4   31 1
     8    4   32 1
     9    4   33 1
    10    5    6 1
    11    5   34 1
    12    6    7 ar
    13    6    9 ar
    14    7    8 ar
    15    7   35 1
    16    8   13 ar
    17    8   36 1
    18    9   10 1
    19    9   11 ar
    20   11   12 1
    21   11   13 ar
    22   13   37 1
    23   14   15 1
    24   14   38 1
    25   15   16 ar
    26   15   23 ar
    27   16   17 ar
    28   16   39 1
    29   17   18 1
    30   17   21 ar
    31   18   19 2
    32   19   20 1
    33   19   24 1
    34   20   21 1
    35   21   22 ar
    36   22   23 ar
    37   22   40 1
    38   23   41 1
    39   24   25 ar
    40   24   29 ar
    41   25   26 ar
    42   25   42 1
    43   26   27 ar
    44   26   43 1
    45   27   28 ar
    46   28   29 ar
    47   28   44 1
    48   29   45 1
@<TRIPOS>SUBSTRUCTURE
     1 Q67         1 TEMP              0 ****  ****    0 ROOT
