@<TRIPOS>MOLECULE
Q6F
   37    38     1     0     0
SMALL
bcc


@<TRIPOS>ATOM
      1 C10          0.0000     0.0000     0.0000 ca         1 Q6F      -0.156600
      2 C13         -0.7400     0.0060    -1.2760 c          1 Q6F       0.596700
      3 C15          1.3980     0.0000     0.0000 ca         1 Q6F      -0.053000
      4 C17          2.0840     0.0000     1.1920 ca         1 Q6F      -0.114500
      5 C20          3.1000     2.5450     3.4510 c3         1 Q6F       0.013700
      6 C21          1.6760    -1.1700    -6.3070 ca         1 Q6F      -0.099000
      7 C22          1.3750     1.1940    -6.5620 ca         1 Q6F      -0.100000
      8 C09         -0.8010     0.0130    -3.7120 c3         1 Q6F       0.108300
      9 C11          1.3890    -0.0000     2.3980 ca         1 Q6F       0.063600
     10 C12          0.1760     0.0120    -4.8590 ca         1 Q6F      -0.122300
     11 C14         -0.6960    -0.0010     1.2130 ca         1 Q6F      -0.053000
     12 C16         -0.0030    -0.0010     2.4020 ca         1 Q6F      -0.114500
     13 C18          0.7790    -1.1690    -5.2540 ca         1 Q6F      -0.019600
     14 C19          0.4790     1.1940    -5.5110 ca         1 Q6F      -0.063000
     15 C23          1.9740     0.0120    -6.9610 ca         1 Q6F      -0.022600
     16 N07         -0.0670     0.0070    -2.4440 ns         1 Q6F      -0.200900
     17 N08          2.0860    -0.0000     3.6020 nu         1 Q6F      -0.437500
     18 O04         -1.9550     0.0110    -1.2750 o          1 Q6F      -0.645100
     19 O05          2.9610     1.0150     5.6330 o          1 Q6F      -0.579800
     20 O06          0.8320     1.8050     4.6470 o          1 Q6F      -0.579800
     21 S03          2.1830     1.3860     4.5020 s6         1 Q6F       0.949900
     22 Cl1          0.4090    -2.6510    -4.4270 cl         1 Q6F      -0.003400
     23 Cl2          3.1000     0.0120    -8.2820 cl         1 Q6F      -0.011400
     24 H1           1.9410     0.0000    -0.9380 ha         1 Q6F       0.117500
     25 H2           3.1680     0.0000     1.1920 ha         1 Q6F       0.122000
     26 H3           3.9440     2.0350     3.0010 h1         1 Q6F       0.063700
     27 H4           2.4470     2.9200     2.6720 h1         1 Q6F       0.063700
     28 H5           3.4570     3.3730     4.0520 h1         1 Q6F       0.063700
     29 H7           1.6090     2.1190    -7.0740 ha         1 Q6F       0.119000
     30 H8          -1.4210     0.9010    -3.7670 h1         1 Q6F       0.037200
     31 H9          -1.4280    -0.8680    -3.7720 h1         1 Q6F       0.037200
     32 H10         -1.7790    -0.0020     1.2170 ha         1 Q6F       0.117500
     33 H11         -0.5420    -0.0020     3.3420 ha         1 Q6F       0.122000
     34 H12          0.0100     2.1190    -5.1990 ha         1 Q6F       0.116000
     35 H13          0.9330     0.0350    -2.4450 hn         1 Q6F       0.182500
     36 H14          2.5060    -0.8450     3.9360 hn         1 Q6F       0.354800
     37 H6           2.1470    -2.0960    -6.6170 ha         1 Q6F       0.129000
@<TRIPOS>BOND
     1     1     2 1   
     2     1     3 ar  
     3     1    11 ar  
     4     2    16 1   
     5     2    18 2   
     6     3     4 ar  
     7     3    24 1   
     8     4     9 ar  
     9     4    25 1   
    10     5    21 1   
    11     5    26 1   
    12     5    27 1   
    13     5    28 1   
    14     6    13 ar  
    15     6    15 ar  
    16     6    37 1   
    17     7    14 ar  
    18     7    15 ar  
    19     7    29 1   
    20     8    10 1   
    21     8    16 1   
    22     8    30 1   
    23     8    31 1   
    24     9    12 ar  
    25     9    17 1   
    26    10    13 ar  
    27    10    14 ar  
    28    11    12 ar  
    29    11    32 1   
    30    12    33 1   
    31    13    22 1   
    32    14    34 1   
    33    15    23 1   
    34    16    35 1   
    35    17    21 1   
    36    17    36 1   
    37    19    21 2   
    38    20    21 2   
@<TRIPOS>SUBSTRUCTURE
     1 Q6F         1 TEMP              0 ****  ****    0 ROOT
