@<TRIPOS>MOLECULE
molecule
   17    18     1     0     0
SMALL
bcc


@<TRIPOS>ATOM
      1 OAA          0.0000     0.0000     0.0000 o          1 Q6T      -0.829300
      2 C10          1.3480     0.0000     0.0000 c          1 Q6T       0.880200
      3 OAB          1.9550     0.0000     1.0530 o          1 Q6T      -0.829300
      4 CAD          2.0850     0.0010    -1.2760 ca         1 Q6T      -0.087600
      5 CAK          3.4860    -0.0040    -1.2790 ca         1 Q6T       0.081100
      6 CAL          4.1720    -0.0080    -2.4910 ca         1 Q6T       0.002100
      7 OAH          5.5130    -0.0130    -2.2320 os         1 Q6T      -0.354900
      8 CAF          5.6360    -0.4240    -0.8570 c3         1 Q6T       0.320200
      9 OAG          4.3920    -0.0060    -0.2640 os         1 Q6T      -0.282900
     10 CAE          3.4680    -0.0080    -3.6840 ca         1 Q6T      -0.136000
     11 CAJ          2.0830    -0.0030    -3.6800 ca         1 Q6T      -0.169000
     12 CAC          1.3900     0.0020    -2.4890 ca         1 Q6T      -0.088000
     13 HAJ          1.5420    -0.0020    -4.6190 ha         1 Q6T       0.113000
     14 HAE          4.0040    -0.0110    -4.6250 ha         1 Q6T       0.113000
     15 HAC          0.3070     0.0060    -2.4930 ha         1 Q6T       0.162000
     16 HAF1         5.7260    -1.5020    -0.8010 h2         1 Q6T       0.052200
     17 HAF2         6.4610     0.1000    -0.3890 h2         1 Q6T       0.052200
@<TRIPOS>BOND
     1     1     2 1
     2     3     2 1
     3    11    10 ar
     4    11    12 ar
     5    10     6 ar
     6     6     7 1
     7     6     5 ar
     8     7     8 1
     9     8     9 1
    10     9     5 1
    11     5     4 ar
    12     4    12 ar
    13     4     2 1
    14    11    13 1
    15    10    14 1
    16    12    15 1
    17     8    16 1
    18     8    17 1
@<TRIPOS>SUBSTRUCTURE
     1 Q6T         1 TEMP              0 ****  ****    0 ROOT
