@<TRIPOS>MOLECULE
Q6T
   17    18     1     0     0
SMALL
bcc


@<TRIPOS>ATOM
      1 OAA         0.2030   -0.6810    0.0720 o         1 Q6T     -0.816800
      2 C10         1.2530    0.0210    0.0670 c         1 Q6T      0.920200
      3 OAB         1.6420    0.7440    1.0210 o         1 Q6T     -0.816800
      4 CAD         2.0770    0.0140   -1.2160 ca        1 Q6T     -0.080600
      5 CAK         3.4390   -0.2150   -1.2970 ca        1 Q6T      0.069100
      6 CAL         4.1350   -0.1910   -2.5350 ca        1 Q6T      0.025100
      7 OAH         5.4890   -0.4560   -2.3150 os        1 Q6T     -0.361900
      8 CAF         5.6390   -0.6520   -0.8930 c3        1 Q6T      0.317200
      9 OAG         4.3480   -0.5100   -0.2770 os        1 Q6T     -0.308900
     10 CAE         3.5030    0.0630   -3.7340 ca        1 Q6T     -0.148000
     11 CAJ         2.1160    0.2890   -3.6610 ca        1 Q6T     -0.162000
     12 CAC         1.4350    0.2600   -2.4500 ca        1 Q6T     -0.113000
     13 HAJ         1.5670    0.4900   -4.5920 ha        1 Q6T      0.111000
     14 HAE         4.0450    0.0840   -4.6850 ha        1 Q6T      0.125000
     15 HAC         0.3450    0.4180   -2.4220 ha        1 Q6T      0.146000
     16 HAF1        6.0120   -1.6910   -0.7140 h2        1 Q6T      0.047200
     17 HAF2        6.3200    0.1400   -0.4940 h2        1 Q6T      0.047200
@<TRIPOS>BOND
     1    1    2 1   
     2    2    3 1   
     3    2    4 1   
     4    4    5 ar  
     5    4   12 ar  
     6    5    6 ar  
     7    5    9 1   
     8    6    7 1   
     9    6   10 ar  
    10    7    8 1   
    11    8    9 1   
    12    8   16 1   
    13    8   17 1   
    14   10   11 ar  
    15   10   14 1   
    16   11   12 ar  
    17   11   13 1   
    18   12   15 1   
@<TRIPOS>SUBSTRUCTURE
     1 Q6T         1 TEMP              0 ****  ****    0 ROOT
