@<TRIPOS>MOLECULE
Q6W
   69    74     1     0     0
SMALL
bcc


@<TRIPOS>ATOM
      1 C            0.0000     0.0000     0.0000 ca         1 Q6W      -0.256900
      2 N            2.0700     0.0350    -1.1650 nb         1 Q6W      -0.568000
      3 O           -1.5250     0.7350     1.6170 o          1 Q6W      -0.543100
      4 C1           1.4120     0.0000     0.0000 ca         1 Q6W       0.449100
      5 C2           2.1650     0.0000     1.2430 cc         1 Q6W      -0.187800
      6 C3           1.9010    -0.6840     2.3440 cd         1 Q6W      -0.073200
      7 C4           0.7960    -1.6020     2.5680 ca         1 Q6W      -0.021800
      8 C5          -0.5010    -1.3170     2.0950 ca         1 Q6W      -0.151600
      9 C6          -0.7380    -0.1260     1.2650 c          1 Q6W       0.661300
     10 C7          -0.6910     0.1120    -1.2100 ca         1 Q6W      -0.038000
     11 C8           0.0510     0.1880    -2.3860 ca         1 Q6W      -0.089300
     12 C9           1.4480     0.1370    -2.3130 ca         1 Q6W       0.406200
     13 C10          1.0140    -2.7950     3.2770 ca         1 Q6W      -0.093000
     14 C11         -0.0350    -3.6450     3.5330 ca         1 Q6W      -0.081000
     15 C12         -1.3190    -3.3370     3.1020 ca         1 Q6W      -0.099300
     16 C13         -1.5570    -2.1850     2.3890 ca         1 Q6W      -0.055000
     17 C14         -0.6300     0.3210    -3.6970 cc         1 Q6W      -0.275300
     18 C15         -2.4580    -4.2730     3.4160 c3         1 Q6W       0.043900
     19 C16         -3.0870    -3.8780     4.7540 c3         1 Q6W      -0.094400
     20 C17         -4.2260    -4.8130     5.0690 c          1 Q6W       0.569100
     21 N18         -4.9330    -4.6550     6.2060 ns         1 Q6W      -0.191900
     22 O19         -4.5080    -5.7070     4.2990 o          1 Q6W      -0.650100
     23 C20         -0.0230     0.4000    -4.9180 cd         1 Q6W      -0.236300
     24 N21         -0.9920     0.5120    -5.8480 na         1 Q6W       0.510400
     25 N22         -2.2300     0.5040    -5.1950 nd         1 Q6W      -0.648800
     26 C23         -2.0220     0.3840    -3.9110 cc         1 Q6W       0.410200
     27 C24         -0.7840     0.6250    -7.2940 c3         1 Q6W      -0.043000
     28 C25         -0.6390    -0.7740    -7.9010 c3         1 Q6W      -0.041900
     29 C26         -0.3620    -0.6490    -9.4000 c3         1 Q6W       0.152800
     30 N27          0.8690     0.1250    -9.6090 n7         1 Q6W      -0.582200
     31 C28          0.7360     1.4880    -9.0760 c3         1 Q6W       0.152800
     32 C29          0.4920     1.4250    -7.5670 c3         1 Q6W      -0.041900
     33 C30         -6.0410    -5.5640     6.5110 c3         1 Q6W       0.009700
     34 C31         -6.6600    -5.1760     7.8300 ca         1 Q6W       0.339600
     35 N32         -6.1370    -5.6260     8.9530 nb         1 Q6W      -0.562000
     36 C33         -6.6450    -5.3120    10.1280 ca         1 Q6W       0.401200
     37 C34         -7.7550    -4.4930    10.2240 ca         1 Q6W      -0.213300
     38 C35         -8.3320    -4.0000     9.0640 ca         1 Q6W      -0.069000
     39 C36         -7.7670    -4.3480     7.8460 ca         1 Q6W      -0.200300
     40 H2           3.0430     0.6330     1.2720 ha         1 Q6W       0.110000
     41 H3           2.5850    -0.5440     3.1720 ha         1 Q6W       0.103000
     42 H7          -1.7730     0.1500    -1.2310 ha         1 Q6W       0.122000
     43 H9           2.0280     0.1950    -3.2260 h4         1 Q6W      -0.019900
     44 H10          2.0110    -3.0470     3.6190 ha         1 Q6W       0.110000
     45 H11          0.1380    -4.5560     4.0940 ha         1 Q6W       0.108000
     46 H13         -2.5610    -1.9500     2.0560 ha         1 Q6W       0.116000
     47 H15         -2.0850    -5.2880     3.4780 hc         1 Q6W       0.035200
     48 H15A        -3.2040    -4.2090     2.6340 hc         1 Q6W       0.035200
     49 H16         -3.4600    -2.8620     4.6920 hc         1 Q6W       0.030700
     50 H16A        -2.3410    -3.9410     5.5370 hc         1 Q6W       0.030700
     51 HN18        -4.6840    -3.9340     6.8540 hn         1 Q6W       0.176500
     52 H20          1.0440     0.3750    -5.1040 h4         1 Q6W       0.156000
     53 H23         -2.7850     0.3470    -3.1430 h4         1 Q6W       0.008100
     54 H24         -1.6290     1.1280    -7.7480 h1         1 Q6W       0.057700
     55 H25          0.1860    -1.2900    -7.4230 hc         1 Q6W       0.032450
     56 H25A        -1.5560    -1.3290    -7.7490 hc         1 Q6W       0.032450
     57 H26         -0.2420    -1.6370    -9.8270 h1         1 Q6W       0.010200
     58 H26A        -1.1910    -0.1420    -9.8780 h1         1 Q6W       0.010200
     59 HN27         1.0740     0.1680   -10.5880 hn         1 Q6W       0.257800
     60 H28         -0.1010     1.9820    -9.5560 h1         1 Q6W       0.010200
     61 H28A         1.6470     2.0400    -9.2710 h1         1 Q6W       0.010200
     62 H29          1.3320     0.9390    -7.0860 hc         1 Q6W       0.032450
     63 H29A         0.3770     2.4300    -7.1790 hc         1 Q6W       0.032450
     64 H30         -5.6690    -6.5800     6.5720 h1         1 Q6W       0.035700
     65 H30A        -6.7870    -5.4990     5.7290 h1         1 Q6W       0.035700
     66 H33         -6.1880    -5.7000    11.0300 h4         1 Q6W      -0.017900
     67 H34         -8.1690    -4.2400    11.1930 ha         1 Q6W       0.115000
     68 H35         -9.2010    -3.3550     9.1070 ha         1 Q6W       0.111000
     69 H36         -8.1920    -3.9820     6.9190 ha         1 Q6W       0.119000
@<TRIPOS>BOND
     1     1     4 ar  
     2     1     9 1   
     3     1    10 ar  
     4     2     4 ar  
     5     2    12 ar  
     6     3     9 2   
     7     4     5 1   
     8     5     6 2   
     9     5    40 1   
    10     6     7 1   
    11     6    41 1   
    12     7     8 ar  
    13     7    13 ar  
    14     8     9 1   
    15     8    16 ar  
    16    10    11 ar  
    17    10    42 1   
    18    11    12 ar  
    19    11    17 1   
    20    12    43 1   
    21    13    14 ar  
    22    13    44 1   
    23    14    15 ar  
    24    14    45 1   
    25    15    16 ar  
    26    15    18 1   
    27    16    46 1   
    28    17    23 2   
    29    17    26 1   
    30    18    19 1   
    31    18    47 1   
    32    18    48 1   
    33    19    20 1   
    34    19    49 1   
    35    19    50 1   
    36    20    21 1   
    37    20    22 2   
    38    21    33 1   
    39    21    51 1   
    40    23    24 1   
    41    23    52 1   
    42    24    25 1   
    43    24    27 1   
    44    25    26 2   
    45    26    53 1   
    46    27    28 1   
    47    27    32 1   
    48    27    54 1   
    49    28    29 1   
    50    28    55 1   
    51    28    56 1   
    52    29    30 1   
    53    29    57 1   
    54    29    58 1   
    55    30    31 1   
    56    30    59 1   
    57    31    32 1   
    58    31    60 1   
    59    31    61 1   
    60    32    62 1   
    61    32    63 1   
    62    33    34 1   
    63    33    64 1   
    64    33    65 1   
    65    34    35 ar  
    66    34    39 ar  
    67    35    36 ar  
    68    36    37 ar  
    69    36    66 1   
    70    37    38 ar  
    71    37    67 1   
    72    38    39 ar  
    73    38    68 1   
    74    39    69 1   
@<TRIPOS>SUBSTRUCTURE
     1 Q6W         1 TEMP              0 ****  ****    0 ROOT
