@<TRIPOS>MOLECULE
Q6Y
   68    72     1     0     0
SMALL
bcc


@<TRIPOS>ATOM
      1 C1           0.0000     0.0000     0.0000 cc         1 Q6Y      -0.060400
      2 C2           1.3550     0.0000     0.0000 cd         1 Q6Y      -0.292300
      3 C11         -0.7700     0.0020     3.7040 c3         1 Q6Y       0.204100
      4 C13         -1.5380    -1.0050    -1.5150 c          1 Q6Y       0.601700
      5 C14         -2.1920    -1.0560    -2.8400 ca         1 Q6Y      -0.422200
      6 C16         -3.0670    -2.0960    -3.1720 ca         1 Q6Y       0.488200
      7 C18         -3.3760    -1.1460    -5.2410 ca         1 Q6Y       0.624300
      8 C20         -1.9570    -0.0610    -3.7970 ca         1 Q6Y       0.488200
      9 C21         -4.0430    -1.1970    -6.5910 c3         1 Q6Y      -0.037400
     10 C23         -1.7620    -2.1680     3.2950 c3         1 Q6Y       0.101800
     11 C24         -1.7340    -3.6360     3.7330 c3         1 Q6Y       0.052000
     12 C26         -1.3700    -2.8390     6.1000 c3         1 Q6Y       0.015700
     13 C27         -1.4120    -1.4020     5.5700 c3         1 Q6Y       0.141800
     14 C28          0.0850    -3.3010     6.2140 c3         1 Q6Y      -0.026100
     15 C29         -3.0560    -4.5430     5.5880 c          1 Q6Y       0.594100
     16 C30         -3.3400    -4.6710     7.0640 c3         1 Q6Y      -0.129700
     17 N3           2.0480     0.0000     1.1780 na         1 Q6Y       0.634700
     18 C4           1.3830     0.0010     2.3750 cd         1 Q6Y      -0.229300
     19 C5          -0.0260     0.0010     2.3930 cd         1 Q6Y      -0.004300
     20 C6          -0.7080     0.0010     1.2180 cc         1 Q6Y      -0.099300
     21 C7           3.3860    -0.0000     1.4630 cd         1 Q6Y      -0.457100
     22 C8           3.5090     0.0000     2.8090 cc         1 Q6Y       0.064600
     23 N9           2.2870     0.0010     3.3470 nc         1 Q6Y      -0.244600
     24 C10         -2.2160     0.0070     1.2170 c3         1 Q6Y       0.024200
     25 N12         -0.6980     0.0060    -1.2160 ns         1 Q6Y      -0.050100
     26 O15         -1.7580    -1.8760    -0.6960 o          1 Q6Y      -0.625100
     27 N17         -3.6290    -2.1010    -4.3670 nb         1 Q6Y      -0.626500
     28 N19         -2.5630    -0.1440    -4.9680 nb         1 Q6Y      -0.626500
     29 N22         -0.9070    -1.3770     4.1900 n3         1 Q6Y      -0.519600
     30 N25         -2.0920    -3.7070     5.1570 n          1 Q6Y      -0.149800
     31 O31         -3.6970    -5.1930     4.7890 o          1 Q6Y      -0.649100
     32 C32         -4.7170    -5.3210     7.2810 c3         1 Q6Y      -0.022900
     33 C33         -4.4700    -6.6280     8.0620 c3         1 Q6Y      -0.023400
     34 C34         -3.1170    -6.3920     8.7790 c3         1 Q6Y      -0.023400
     35 C35         -2.3040    -5.6060     7.7200 c3         1 Q6Y      -0.022900
     36 H1           1.8930    -0.0010    -0.9400 h4         1 Q6Y       0.140000
     37 H2          -1.7530     0.4340     3.5610 h1         1 Q6Y       0.027700
     38 H3          -0.2200     0.5880     4.4300 h1         1 Q6Y       0.027700
     39 H4          -3.2790    -2.8850    -2.4600 h4         1 Q6Y      -0.004400
     40 H5          -1.2910     0.7650    -3.5800 h4         1 Q6Y      -0.004400
     41 H6          -3.5700    -0.4830    -7.2550 hc         1 Q6Y       0.023700
     42 H7          -3.9450    -2.1940    -7.0050 hc         1 Q6Y       0.023700
     43 H8          -5.0930    -0.9520    -6.4850 hc         1 Q6Y       0.023700
     44 H9          -2.7780    -1.7960     3.3460 h1         1 Q6Y       0.032200
     45 H10         -1.3920    -2.0880     2.2800 h1         1 Q6Y       0.032200
     46 H11         -2.4500    -4.2030     3.1500 h1         1 Q6Y       0.042700
     47 H12         -0.7390    -4.0390     3.5880 h1         1 Q6Y       0.042700
     48 H13         -1.8480    -2.8810     7.0720 h1         1 Q6Y       0.046700
     49 H14         -2.4330    -1.0410     5.5860 h1         1 Q6Y       0.016200
     50 H15         -0.7900    -0.7700     6.1920 h1         1 Q6Y       0.016200
     51 H16          0.1430    -4.3630     6.0090 hc         1 Q6Y       0.019700
     52 H17          0.4480    -3.1060     7.2150 hc         1 Q6Y       0.019700
     53 H18          0.6920    -2.7610     5.4980 hc         1 Q6Y       0.019700
     54 H19         -3.3120    -3.6980     7.5380 hc         1 Q6Y       0.036700
     55 H20          4.1960    -0.0010     0.7440 h4         1 Q6Y       0.160000
     56 H21          4.4420     0.0000     3.3590 h4         1 Q6Y       0.139000
     57 H22         -2.5810    -1.0080     1.1190 hc         1 Q6Y       0.028700
     58 H23         -2.5740     0.6020     0.3860 hc         1 Q6Y       0.028700
     59 H24         -2.5750     0.4320     2.1470 hc         1 Q6Y       0.028700
     60 H25         -0.5560     0.7480    -1.8720 hn         1 Q6Y       0.175500
     61 H27         -5.1760    -5.5440     6.3250 hc         1 Q6Y       0.025950
     62 H28         -5.3510    -4.6600     7.8580 hc         1 Q6Y       0.025950
     63 H29         -4.3950    -7.4670     7.3810 hc         1 Q6Y       0.015450
     64 H30         -5.2580    -6.7890     8.7880 hc         1 Q6Y       0.015450
     65 H31         -3.2570    -5.7960     9.6730 hc         1 Q6Y       0.015450
     66 H32         -2.6360    -7.3350     9.0080 hc         1 Q6Y       0.015450
     67 H33         -1.5220    -5.0270     8.1980 hc         1 Q6Y       0.025950
     68 H34         -1.8870    -6.2840     6.9850 hc         1 Q6Y       0.025950
@<TRIPOS>BOND
     1     1     2 2   
     2     1    20 1   
     3     1    25 1   
     4     2    17 1   
     5     2    36 1   
     6     3    19 1   
     7     3    29 1   
     8     3    37 1   
     9     3    38 1   
    10     4     5 1   
    11     4    25 1   
    12     4    26 2   
    13     5     6 ar  
    14     5     8 ar  
    15     6    27 ar  
    16     6    39 1   
    17     7     9 1   
    18     7    27 ar  
    19     7    28 ar  
    20     8    28 ar  
    21     8    40 1   
    22     9    41 1   
    23     9    42 1   
    24     9    43 1   
    25    10    11 1   
    26    10    29 1   
    27    10    44 1   
    28    10    45 1   
    29    11    30 1   
    30    11    46 1   
    31    11    47 1   
    32    12    13 1   
    33    12    14 1   
    34    12    30 1   
    35    12    48 1   
    36    13    29 1   
    37    13    49 1   
    38    13    50 1   
    39    14    51 1   
    40    14    52 1   
    41    14    53 1   
    42    15    16 1   
    43    15    30 1   
    44    15    31 2   
    45    16    32 1   
    46    16    35 1   
    47    16    54 1   
    48    17    18 1   
    49    17    21 1   
    50    18    19 1   
    51    18    23 2   
    52    19    20 2   
    53    20    24 1   
    54    21    22 2   
    55    21    55 1   
    56    22    23 1   
    57    22    56 1   
    58    24    57 1   
    59    24    58 1   
    60    24    59 1   
    61    25    60 1   
    62    32    33 1   
    63    32    61 1   
    64    32    62 1   
    65    33    34 1   
    66    33    63 1   
    67    33    64 1   
    68    34    35 1   
    69    34    65 1   
    70    34    66 1   
    71    35    67 1   
    72    35    68 1   
@<TRIPOS>SUBSTRUCTURE
     1 Q6Y         1 TEMP              0 ****  ****    0 ROOT
