@<TRIPOS>MOLECULE
molecule
   23    23     1     0     0
SMALL
bcc


@<TRIPOS>ATOM
      1 O1           0.0000     0.0000     0.0000 oh         1 Q6Z      -0.609800
      2 CAR          1.4290     0.0000     0.0000 c3         1 Q6Z       0.128100
      3 CAW          1.9380     0.0000     1.4430 c3         1 Q6Z      -0.097400
      4 CAV          3.4680     0.0000     1.4440 c3         1 Q6Z      -0.082400
      5 CAU          3.9780     1.2490     0.7230 c3         1 Q6Z      -0.078400
      6 CAT          3.4690     1.2500    -0.7190 c3         1 Q6Z      -0.074700
      7 CAA          3.9790     2.4990    -1.4400 c3         1 Q6Z      -0.085100
      8 CAS          1.9390     1.2500    -0.7200 c3         1 Q6Z       0.150100
      9 OAX          1.4640     1.2500    -2.0680 oh         1 Q6Z      -0.606800
     10 H1          -0.3140    -0.8480    -0.2680 ho         1 Q6Z       0.405000
     11 HAR          1.7950    -0.8830    -0.5100 h1         1 Q6Z       0.043700
     12 HAW1         1.5780     0.8860     1.9520 hc         1 Q6Z       0.050700
     13 HAW2         1.5780    -0.8860     1.9510 hc         1 Q6Z       0.050700
     14 HAS          1.5800     2.1330    -0.2060 h1         1 Q6Z       0.044700
     15 HAV1         3.8280    -0.8830     0.9310 hc         1 Q6Z       0.044200
     16 HAV2         3.8270     0.0030     2.4660 hc         1 Q6Z       0.044200
     17 HAU1         3.6150     2.1330     1.2340 hc         1 Q6Z       0.045700
     18 HAU2         5.0620     1.2470     0.7220 hc         1 Q6Z       0.045700
     19 HAT          3.8280     0.3630    -1.2270 hc         1 Q6Z       0.061700
     20 HAA1         3.6700     2.4690    -2.4780 hc         1 Q6Z       0.037700
     21 HAA2         5.0610     2.5310    -1.3860 hc         1 Q6Z       0.037700
     22 HAA3         3.5680     3.3830    -0.9670 hc         1 Q6Z       0.037700
     23 HAX          0.7350     1.8430    -2.1440 ho         1 Q6Z       0.408000
@<TRIPOS>BOND
     1     1     2 1
     2     2     3 1
     3     2     8 1
     4     3     4 1
     5     4     5 1
     6     5     6 1
     7     6     7 1
     8     6     8 1
     9     8     9 1
    10     1    10 1
    11     2    11 1
    12     3    12 1
    13     3    13 1
    14     8    14 1
    15     4    15 1
    16     4    16 1
    17     5    17 1
    18     5    18 1
    19     6    19 1
    20     7    20 1
    21     7    21 1
    22     7    22 1
    23     9    23 1
@<TRIPOS>SUBSTRUCTURE
     1 Q6Z         1 TEMP              0 ****  ****    0 ROOT
