@<TRIPOS>MOLECULE
Q6Z
   23    23     1     0     0
SMALL
bcc


@<TRIPOS>ATOM
      1 O1          0.0090    0.1110   -0.1570 oh        1 Q6Z     -0.612800
      2 CAR         1.4270    0.0120   -0.0830 c3        1 Q6Z      0.102100
      3 CAW         1.9040   -0.0520    1.3610 c3        1 Q6Z     -0.108400
      4 CAV         3.4150    0.0040    1.4240 c3        1 Q6Z     -0.075400
      5 CAU         3.9480    1.2390    0.7300 c3        1 Q6Z     -0.078400
      6 CAT         3.4950    1.3130   -0.7200 c3        1 Q6Z     -0.061700
      7 CAA         4.0180    2.5710   -1.3780 c3        1 Q6Z     -0.088100
      8 CAS         1.9650    1.2680   -0.7940 c3        1 Q6Z      0.155100
      9 OAX         1.6050    1.2360   -2.1670 oh        1 Q6Z     -0.602800
     10 H1         -0.3510   -0.6490    0.3140 ho        1 Q6Z      0.406000
     11 HAR         1.7620   -0.9050   -0.6450 h1        1 Q6Z      0.047700
     12 HAW1        1.4630    0.8060    1.9320 hc        1 Q6Z      0.047700
     13 HAW2        1.5350   -0.9980    1.8350 hc        1 Q6Z      0.047700
     14 HAS         1.5220    2.1840   -0.3120 h1        1 Q6Z      0.047700
     15 HAV1        3.7440    0.0040    2.4960 hc        1 Q6Z      0.043700
     16 HAV2        3.8440   -0.9140    0.9410 hc        1 Q6Z      0.043700
     17 HAU1        3.6010    2.1550    1.2760 hc        1 Q6Z      0.045200
     18 HAU2        5.0690    1.2330    0.7620 hc        1 Q6Z      0.045200
     19 HAT         3.8940    0.4200   -1.2780 hc        1 Q6Z      0.060700
     20 HAA1        3.6510    2.6270   -2.4320 hc        1 Q6Z      0.040033
     21 HAA2        3.6660    3.4780   -0.8310 hc        1 Q6Z      0.040033
     22 HAA3        5.1340    2.5690   -1.3820 hc        1 Q6Z      0.040033
     23 HAX         0.6440    1.1340   -2.1930 ho        1 Q6Z      0.417000
@<TRIPOS>BOND
     1    1    2 1   
     2    1   10 1   
     3    2    3 1   
     4    2    8 1   
     5    2   11 1   
     6    3    4 1   
     7    3   12 1   
     8    3   13 1   
     9    4    5 1   
    10    4   15 1   
    11    4   16 1   
    12    5    6 1   
    13    5   17 1   
    14    5   18 1   
    15    6    7 1   
    16    6    8 1   
    17    6   19 1   
    18    7   20 1   
    19    7   21 1   
    20    7   22 1   
    21    8    9 1   
    22    8   14 1   
    23    9   23 1   
@<TRIPOS>SUBSTRUCTURE
     1 Q6Z         1 TEMP              0 ****  ****    0 ROOT
