@<TRIPOS>MOLECULE
Q74
   35    38     1     0     0
SMALL
bcc


@<TRIPOS>ATOM
      1 F1          0.8600    1.6530   -1.1470 f         1 Q74     -0.132900
      2 C2          1.7220    0.8310   -0.5010 ca        1 Q74      0.096900
      3 C3          2.6910    1.3720    0.3660 ca        1 Q74      0.124900
      4 F4          2.7640    2.7060    0.5570 f         1 Q74     -0.112900
      5 C5          1.6300   -0.5620   -0.7150 ca        1 Q74     -0.195000
      6 C6          2.5030   -1.4330   -0.0670 ca        1 Q74      0.184900
      7 F7          2.3970   -2.7640   -0.2890 f         1 Q74     -0.128900
      8 C8          3.4880   -0.9320    0.8110 ca        1 Q74     -0.174100
      9 C9          3.5820    0.4840    1.0300 ca        1 Q74      0.095400
     10 N10         4.5900    0.8710    1.9160 nc        1 Q74     -0.543100
     11 S11         4.6640   -1.7200    1.7210 ss        1 Q74      0.133900
     12 C12         5.2290   -0.2140    2.3480 cd        1 Q74      0.370200
     13 C13         6.3650   -0.2080    3.3170 c3        1 Q74     -0.009500
     14 C14         6.9850   -1.5320    3.4400 cc        1 Q74     -0.279400
     15 C15         8.0820   -2.0410    2.6630 ca        1 Q74     -0.168100
     16 C16         8.8490   -1.5770    1.5940 ca        1 Q74     -0.076000
     17 C17         6.6810   -2.5060    4.4100 cd        1 Q74     -0.010100
     18 N18         7.5100   -3.6050    4.2840 na        1 Q74     -0.105100
     19 C19         7.4950   -4.8140    5.0640 c3        1 Q74     -0.113700
     20 C20         6.6430   -4.8300    6.3720 c         1 Q74      0.920600
     21 O21         6.9910   -5.7050    7.2050 o         1 Q74     -0.820300
     22 O22         5.6740   -4.0350    6.5110 o         1 Q74     -0.820300
     23 C23         8.3940   -3.3630    3.2100 ca        1 Q74      0.392800
     24 N24         9.3820   -4.1720    2.7260 nb        1 Q74     -0.651000
     25 C25        10.0730   -3.6670    1.6980 ca        1 Q74      0.379200
     26 C26         9.8550   -2.3990    1.1050 ca        1 Q74     -0.280300
     27 H5          0.8610   -0.9520   -1.3980 ha        1 Q74      0.162000
     28 H13         7.1320    0.5450    2.9810 hc        1 Q74      0.075200
     29 H13A        5.9740    0.1330    4.3180 hc        1 Q74      0.075200
     30 H16         8.6560   -0.5880    1.1570 ha        1 Q74      0.126000
     31 H17         5.9140   -2.4950    5.2060 h4        1 Q74      0.240000
     32 H19         7.1050   -5.6460    4.4120 h1        1 Q74      0.057200
     33 H19A        8.5570   -5.0580    5.3460 h1        1 Q74      0.057200
     34 H25        10.8720   -4.3240    1.3090 h4        1 Q74      0.005100
     35 H26        10.4850   -2.0800    0.2670 ha        1 Q74      0.124000
@<TRIPOS>BOND
     1    1    2 1   
     2    2    3 ar  
     3    2    5 ar  
     4    3    4 1   
     5    3    9 ar  
     6    5    6 ar  
     7    5   27 1   
     8    6    7 1   
     9    6    8 ar  
    10    8    9 ar  
    11    8   11 1   
    12    9   10 1   
    13   10   12 2   
    14   11   12 1   
    15   12   13 1   
    16   13   14 1   
    17   13   28 1   
    18   13   29 1   
    19   14   15 1   
    20   14   17 2   
    21   15   16 ar  
    22   15   23 ar  
    23   16   26 ar  
    24   16   30 1   
    25   17   18 1   
    26   17   31 1   
    27   18   19 1   
    28   18   23 1   
    29   19   20 1   
    30   19   32 1   
    31   19   33 1   
    32   20   21 1   
    33   20   22 1   
    34   23   24 ar  
    35   24   25 ar  
    36   25   26 ar  
    37   25   34 1   
    38   26   35 1   
@<TRIPOS>SUBSTRUCTURE
     1 Q74         1 TEMP              0 ****  ****    0 ROOT
