@<TRIPOS>MOLECULE
molecule
   35    38     1     0     0
SMALL
bcc


@<TRIPOS>ATOM
      1 F1           0.0000     0.0000     0.0000 f          1 Q74      -0.125900
      2 C2           1.3510     0.0000     0.0000 ca         1 Q74       0.112900
      3 C3           2.0330     0.0000     1.1940 ca         1 Q74       0.129900
      4 F4           1.3490     0.0010     2.3590 f          1 Q74      -0.110900
      5 C5           2.0400    -0.0070    -1.2080 ca         1 Q74      -0.198000
      6 C6           3.4170    -0.0070    -1.2170 ca         1 Q74       0.189900
      7 F7           4.0840    -0.0140    -2.3910 f          1 Q74      -0.130900
      8 C8           4.1250    -0.0010    -0.0140 ca         1 Q74      -0.119100
      9 C9           3.4450    -0.0010     1.2070 ca         1 Q74       0.145400
     10 N10          4.2930    -0.0020     2.2540 nc         1 Q74      -0.582100
     11 S11          5.8530     0.0010     0.3260 ss         1 Q74      -0.042100
     12 C12          5.5480    -0.0030     2.0050 cd         1 Q74       0.443200
     13 C13          6.6230    -0.0040     3.0620 c3         1 Q74      -0.000500
     14 C14          6.9790    -1.4250     3.4150 cc         1 Q74      -0.228400
     15 C15          7.9380    -2.2830     2.7160 ca         1 Q74      -0.215100
     16 C16          8.7680    -2.1160     1.6060 ca         1 Q74      -0.069000
     17 C17          6.4820    -2.1450     4.4330 cd         1 Q74      -0.018100
     18 N18          7.0420    -3.3950     4.4370 na         1 Q74      -0.106100
     19 C19          6.7350    -4.4490     5.4070 c3         1 Q74      -0.078700
     20 C20          7.7500    -4.4180     6.5210 c          1 Q74       0.878600
     21 O21          7.6670    -5.3000     7.5290 o          1 Q74      -0.826800
     22 O22          8.6380    -3.5990     6.5070 o          1 Q74      -0.826800
     23 C23          7.9370    -3.5130     3.4020 ca         1 Q74       0.497800
     24 N24          8.7210    -4.4990     2.9870 nb         1 Q74      -0.679000
     25 C25          9.5120    -4.3620     1.9440 ca         1 Q74       0.430200
     26 C26          9.5630    -3.1800     1.2220 ca         1 Q74      -0.300300
     27 H5           1.4930    -0.0120    -2.1430 ha         1 Q74       0.163000
     28 H13          6.2610     0.5070     3.9460 hc         1 Q74       0.068200
     29 H13A         7.5010     0.5050     2.6850 hc         1 Q74       0.068200
     30 H16          8.7870    -1.1800     1.0600 ha         1 Q74       0.114000
     31 H17          5.7480    -1.7900     5.1450 h4         1 Q74       0.172000
     32 H19          6.7690    -5.4130     4.9150 h1         1 Q74       0.059700
     33 H19A         5.7450    -4.2870     5.8160 h1         1 Q74       0.059700
     34 H25         10.1360    -5.1940     1.6410 h4         1 Q74       0.009100
     35 H26         10.2220    -3.0890     0.3670 ha         1 Q74       0.118000
@<TRIPOS>BOND
     1     1     2 1
     2     2     3 ar
     3     2     5 ar
     4     3     4 1
     5     3     9 ar
     6     5     6 ar
     7     6     7 1
     8     6     8 ar
     9     8     9 ar
    10     8    11 1
    11     9    10 1
    12    10    12 2
    13    11    12 1
    14    12    13 1
    15    13    14 1
    16    14    15 1
    17    14    17 2
    18    15    16 ar
    19    15    23 ar
    20    16    26 ar
    21    17    18 1
    22    18    19 1
    23    18    23 1
    24    19    20 1
    25    20    21 1
    26    20    22 1
    27    23    24 ar
    28    24    25 ar
    29    25    26 ar
    30     5    27 1
    31    13    28 1
    32    13    29 1
    33    16    30 1
    34    17    31 1
    35    19    32 1
    36    19    33 1
    37    25    34 1
    38    26    35 1
@<TRIPOS>SUBSTRUCTURE
     1 Q74         1 TEMP              0 ****  ****    0 ROOT
