@<TRIPOS>MOLECULE
Q7M
   56    60     1     0     0
SMALL
bcc


@<TRIPOS>ATOM
      1 F36          0.0000     0.0000     0.0000 f          1 Q7M      -0.206300
      2 C33          1.3990     0.0000     0.0000 c3         1 Q7M       0.642200
      3 F37          1.8650     0.0000     1.3190 f          1 Q7M      -0.206300
      4 F35          1.8650    -1.1410    -0.6590 f          1 Q7M      -0.206300
      5 C29          1.9010     1.2310    -0.7100 ca         1 Q7M      -0.191300
      6 C28          2.1300     2.3930     0.0010 ca         1 Q7M      -0.046000
      7 C30          2.1370     1.1950    -2.0720 ca         1 Q7M      -0.046000
      8 C31          2.6040     2.3200    -2.7260 ca         1 Q7M      -0.085000
      9 C32          2.8350     3.4840    -2.0210 ca         1 Q7M      -0.096000
     10 C27          2.5940     3.5260    -0.6540 ca         1 Q7M      -0.099400
     11 N26          2.8270     4.7050     0.0640 ns         1 Q7M      -0.033100
     12 C25          2.0250     5.0350     1.0960 c          1 Q7M       0.556100
     13 O34          1.1530     4.2700     1.4560 o          1 Q7M      -0.676100
     14 N24          2.1920     6.2140     1.7270 ns         1 Q7M      -0.057100
     15 C17          1.4240     6.5170     2.8590 ca         1 Q7M      -0.027400
     16 C16          1.9790     7.2540     3.8970 ca         1 Q7M      -0.112500
     17 C15          1.2230     7.5520     5.0130 ca         1 Q7M      -0.050000
     18 C18          0.1070     6.0850     2.9400 ca         1 Q7M      -0.112500
     19 C19         -0.6490     6.3820     4.0570 ca         1 Q7M      -0.050000
     20 C14         -0.0930     7.1150     5.0970 ca         1 Q7M      -0.263200
     21 N11         -0.8610     7.4170     6.2320 na         1 Q7M       0.435800
     22 C10         -1.2320     8.6750     6.6040 cc         1 Q7M       0.008900
     23 N21         -0.9060     9.8190     5.9220 nv         1 Q7M      -0.382600
     24 C12         -1.3500     6.4810     7.1210 ca         1 Q7M       0.132500
     25 C8          -2.0920     7.2150     8.1490 ca         1 Q7M       0.360800
     26 C9          -1.9870     8.6330     7.7700 cd         1 Q7M      -0.610000
     27 C22         -2.5640     9.7730     8.4790 c          1 Q7M       0.434300
     28 N4          -1.8560    10.3980     9.4390 nz         1 Q7M       0.183600
     29 O23         -3.6860    10.1580     8.2010 o          1 Q7M      -0.416100
     30 N13         -1.2680     5.1690     7.1950 nb         1 Q7M      -0.477000
     31 C4          -1.8600     4.5190     8.2040 ca         1 Q7M       0.263300
     32 C5          -2.5780     5.2300     9.1970 ca         1 Q7M       0.282300
     33 N7          -2.6750     6.5640     9.1380 nb         1 Q7M      -0.547000
     34 C3          -1.7780     3.1170     8.2900 ca         1 Q7M      -0.130300
     35 C2          -2.3840     2.4640     9.3180 ca         1 Q7M      -0.078000
     36 C1          -3.0880     3.1640    10.2960 ca         1 Q7M      -0.063000
     37 C6          -3.1910     4.5200    10.2460 ca         1 Q7M      -0.153300
     38 H28          1.9410     2.4220     1.0680 ha         1 Q7M       0.159000
     39 H30          1.9560     0.2820    -2.6270 ha         1 Q7M       0.123000
     40 H31          2.7890     2.2870    -3.7930 ha         1 Q7M       0.115000
     41 H32          3.1990     4.3660    -2.5340 ha         1 Q7M       0.107000
     42 HN26         3.5850     5.3060    -0.1930 hn         1 Q7M       0.165500
     43 HN24         2.8680     6.8700     1.3910 hn         1 Q7M       0.169500
     44 H16          3.0050     7.5940     3.8310 ha         1 Q7M       0.142500
     45 H15          1.6560     8.1250     5.8240 ha         1 Q7M       0.113000
     46 H18         -0.3270     5.5130     2.1290 ha         1 Q7M       0.142500
     47 H19         -1.6760     6.0430     4.1220 ha         1 Q7M       0.113000
     48 H212        -1.2180    10.7080     6.2590 hn         1 Q7M       0.280800
     49 H211        -0.3570     9.7650     5.0870 hn         1 Q7M       0.280800
     50 HN41        -1.8750    11.3860     9.2780 hn         1 Q7M       0.243800
     51 HN42        -2.2580    10.1980    10.3340 hn         1 Q7M       0.243800
     52 H3          -1.2330     2.5580     7.5380 ha         1 Q7M       0.128000
     53 H2          -2.3160     1.3840     9.3790 ha         1 Q7M       0.117000
     54 H1          -3.5620     2.6220    11.1050 ha         1 Q7M       0.114000
     55 H6          -3.7420     5.0510    11.0130 ha         1 Q7M       0.121000
     56 H43         -0.9150    10.0580     9.4350 hn         1 Q7M       0.243800
@<TRIPOS>BOND
     1     1     2 1   
     2     2     3 1   
     3     2     4 1   
     4     2     5 1   
     5     5     6 ar  
     6     5     7 ar  
     7     6    10 ar  
     8     6    38 1   
     9     7     8 ar  
    10     7    39 1   
    11     8     9 ar  
    12     8    40 1   
    13     9    10 ar  
    14     9    41 1   
    15    10    11 1   
    16    11    12 1   
    17    11    42 1   
    18    12    13 2   
    19    12    14 1   
    20    14    15 1   
    21    14    43 1   
    22    15    16 ar  
    23    15    18 ar  
    24    16    17 ar  
    25    16    44 1   
    26    17    20 ar  
    27    17    45 1   
    28    18    19 ar  
    29    18    46 1   
    30    19    20 ar  
    31    19    47 1   
    32    20    21 1   
    33    21    22 1   
    34    21    24 1   
    35    22    23 1   
    36    22    26 2   
    37    23    48 1   
    38    23    49 1   
    39    24    25 ar  
    40    24    30 ar  
    41    25    26 1   
    42    25    33 ar  
    43    26    27 1   
    44    27    28 1   
    45    27    29 2   
    46    28    50 1   
    47    28    51 1   
    48    28    56 1   
    49    30    31 ar  
    50    31    32 ar  
    51    31    34 ar  
    52    32    33 ar  
    53    32    37 ar  
    54    34    35 ar  
    55    34    52 1   
    56    35    36 ar  
    57    35    53 1   
    58    36    37 ar  
    59    36    54 1   
    60    37    55 1   
@<TRIPOS>SUBSTRUCTURE
     1 Q7M         1 TEMP              0 ****  ****    0 ROOT
