@<TRIPOS>MOLECULE
Q7U
   34    36     1     0     0
SMALL
bcc


@<TRIPOS>ATOM
      1 Cl           0.0000     0.0000     0.0000 cl         1 Q7U      -0.039400
      2 CAK          1.7360     0.0000     0.0000 ca         1 Q7U      -0.066600
      3 CAJ          2.4280     0.0000     1.1960 ca         1 Q7U      -0.084000
      4 CAB          3.8100    -0.0000     1.1970 ca         1 Q7U      -0.107000
      5 CAC          4.5050    -0.0010     0.0000 ca         1 Q7U      -0.078000
      6 CAD          3.8200    -0.0010    -1.1980 ca         1 Q7U      -0.095000
      7 CAL          2.4310    -0.0070    -1.2030 ca         1 Q7U      -0.068400
      8 NAM          1.7340    -0.0130    -2.4170 ns         1 Q7U      -0.058100
      9 CAN          2.2280     0.6500    -3.4810 c          1 Q7U       0.544100
     10 OAE          3.3170     1.1850    -3.4120 o          1 Q7U      -0.612100
     11 NAO          1.5140     0.7190    -4.6220 ns         1 Q7U      -0.031400
     12 CAP          2.0210     1.4010    -5.7150 cc         1 Q7U       0.160400
     13 NAQ          3.1780     2.0110    -5.7500 nd         1 Q7U      -0.488100
     14 CAR          3.3600     2.5740    -6.9730 ca         1 Q7U       0.078400
     15 CAS          4.3930     3.3240    -7.5410 ca         1 Q7U      -0.038000
     16 CAT          4.2830     3.7670    -8.8400 ca         1 Q7U      -0.119000
     17 CAI          3.1540     3.4740    -9.5900 ca         1 Q7U      -0.094000
     18 CAH          2.1240     2.7340    -9.0450 ca         1 Q7U      -0.092000
     19 CAG          2.2190     2.2790    -7.7370 ca         1 Q7U      -0.254200
     20 NAF          1.3900     1.5310    -6.9190 na         1 Q7U       0.265700
     21 CAA          0.0790     0.9840    -7.2770 c3         1 Q7U       0.002600
     22 HAJ          1.8870     0.0010     2.1350 ha         1 Q7U       0.113000
     23 HAB          4.3510    -0.0000     2.1360 ha         1 Q7U       0.106000
     24 HAC          5.5890     0.0010     0.0040 ha         1 Q7U       0.107000
     25 HAD          4.3650    -0.0040    -2.1340 ha         1 Q7U       0.155000
     26 HAM          0.8850    -0.5360    -2.5040 hn         1 Q7U       0.164500
     27 HAO          0.6090     0.2940    -4.6730 hn         1 Q7U       0.155500
     28 HAS          5.2780     3.5570    -6.9610 ha         1 Q7U       0.113000
     29 HAT          5.0840     4.3480    -9.2790 ha         1 Q7U       0.104000
     30 HAI          3.0790     3.8280   -10.6110 ha         1 Q7U       0.102000
     31 HAH          1.2450     2.5080    -9.6360 ha         1 Q7U       0.098000
     32 HAA1        -0.6840     1.4390    -6.6570 h1         1 Q7U       0.018700
     33 HAA2        -0.1290     1.1960    -8.3190 h1         1 Q7U       0.018700
     34 HAA3         0.0800    -0.0880    -7.1200 h1         1 Q7U       0.018700
@<TRIPOS>BOND
     1     1     2 1   
     2     2     3 ar  
     3     2     7 ar  
     4     3     4 ar  
     5     3    22 1   
     6     4     5 ar  
     7     4    23 1   
     8     5     6 ar  
     9     5    24 1   
    10     6     7 ar  
    11     6    25 1   
    12     7     8 1   
    13     8     9 1   
    14     8    26 1   
    15     9    10 2   
    16     9    11 1   
    17    11    12 1   
    18    11    27 1   
    19    12    13 2   
    20    12    20 1   
    21    13    14 1   
    22    14    15 ar  
    23    14    19 ar  
    24    15    16 ar  
    25    15    28 1   
    26    16    17 ar  
    27    16    29 1   
    28    17    18 ar  
    29    17    30 1   
    30    18    19 ar  
    31    18    31 1   
    32    19    20 1   
    33    20    21 1   
    34    21    32 1   
    35    21    33 1   
    36    21    34 1   
@<TRIPOS>SUBSTRUCTURE
     1 Q7U         1 TEMP              0 ****  ****    0 ROOT
