@<TRIPOS>MOLECULE
molecule
   53    56     1     0     0
SMALL
bcc


@<TRIPOS>ATOM
      1 ClBF         0.0000     0.0000     0.0000 cl         1 Q80      -0.109400
      2 CAB          1.7360     0.0000     0.0000 ca         1 Q80       0.026400
      3 CAC          2.4280     0.0000     1.1980 ca         1 Q80      -0.119500
      4 CAD          3.8110    -0.0000     1.1970 ca         1 Q80      -0.116500
      5 CAA          2.4280    -0.0060    -1.1980 ca         1 Q80      -0.119500
      6 CAF          3.8110    -0.0060    -1.1980 ca         1 Q80      -0.116500
      7 CAE          4.5010    -0.0000    -0.0010 ca         1 Q80      -0.086300
      8 CAG          6.0090     0.0010    -0.0000 c3         1 Q80      -0.033100
      9 CAH          6.5190    -1.4410     0.0000 c3         1 Q80      -0.076400
     10 CAI          8.0500    -1.4400    -0.0000 c3         1 Q80       0.308600
     11 OAP          8.5310    -0.7640     1.1730 os         1 Q80      -0.409600
     12 CAJ          8.5640    -2.8810    -0.0070 c3         1 Q80       0.024300
     13 NAK         10.0290    -2.8760    -0.0070 na         1 Q80      -0.191900
     14 CAO         10.8300    -2.8800     1.0800 cc         1 Q80       0.388400
     15 NAN         12.0740    -2.8730     0.6830 nd         1 Q80      -0.697000
     16 CAM         12.1100    -2.8650    -0.6580 cd         1 Q80       0.301200
     17 CAL         10.8410    -2.8730    -1.1100 cc         1 Q80      -0.269600
     18 OAS          8.5300    -0.7500    -1.1620 os         1 Q80      -0.417600
     19 CAR          9.3330     0.3550    -0.7010 c3         1 Q80       0.109400
     20 CAQ          9.7250    -0.0700     0.7360 c3         1 Q80       0.098100
     21 CAT          9.9990     1.1530     1.6130 c3         1 Q80       0.006700
     22 SAU         10.4190     0.6100     3.2930 ss         1 Q80      -0.274400
     23 CAV         10.6980     2.1280     4.1420 ca         1 Q80       0.559600
     24 CBA         11.0490     2.1120     5.4890 ca         1 Q80      -0.241300
     25 NAW         10.5750     3.2760     3.4920 nb         1 Q80      -0.718000
     26 CAX         10.7760     4.4350     4.0920 ca         1 Q80       0.482200
     27 CAY         11.1220     4.4920     5.4270 ca         1 Q80      -0.325600
     28 CAZ         11.2660     3.3100     6.1430 ca         1 Q80      -0.029000
     29 CBB         11.3480     5.8220     6.0980 c3         1 Q80       0.680200
     30 FBD         10.4460     5.9680     7.1570 f          1 Q80      -0.222300
     31 FBE         12.6580     5.8800     6.5880 f          1 Q80      -0.222300
     32 FBC         11.1510     6.8510     5.1720 f          1 Q80      -0.222300
     33 HAC          1.8860    -0.0000     2.1360 ha         1 Q80       0.144500
     34 HAD          4.3530     0.0020     2.1350 ha         1 Q80       0.139500
     35 HAA          1.8870    -0.0110    -2.1360 ha         1 Q80       0.144500
     36 HAF          4.3520    -0.0080    -2.1360 ha         1 Q80       0.139500
     37 HAG          6.3700     0.5120    -0.8840 hc         1 Q80       0.061700
     38 HAGA         6.3690     0.5120     0.8850 hc         1 Q80       0.061700
     39 HAH          6.1590    -1.9520     0.8850 hc         1 Q80       0.063700
     40 HAHA         6.1580    -1.9520    -0.8840 hc         1 Q80       0.063700
     41 HAJ          8.2050    -3.3980     0.8740 h1         1 Q80       0.080200
     42 HAJA         8.2050    -3.3890    -0.8950 h1         1 Q80       0.080200
     43 HAO         10.4950    -2.8870     2.1100 h5         1 Q80       0.071100
     44 HAM         13.0040    -2.8600    -1.2700 h4         1 Q80       0.042100
     45 HAL         10.5250    -2.8700    -2.1460 h4         1 Q80       0.179000
     46 HAR         10.2150     0.4690    -1.3190 h1         1 Q80       0.066700
     47 HARA         8.7490     1.2680    -0.6820 h1         1 Q80       0.066700
     48 HAQ         10.5750    -0.7410     0.7190 h1         1 Q80       0.095700
     49 HAT         10.8260     1.7170     1.1990 h1         1 Q80       0.087700
     50 HATA         9.1160     1.7790     1.6460 h1         1 Q80       0.087700
     51 HBA         11.1520     1.1720     6.0180 ha         1 Q80       0.157000
     52 HAX         10.6650     5.3540     3.5290 h4         1 Q80       0.042100
     53 HAZ         11.5390     3.3280     7.1920 ha         1 Q80       0.155000
@<TRIPOS>BOND
     1     1     2 1
     2     3     2 ar
     3     2     5 ar
     4     3     4 ar
     5     3    33 1
     6     4     7 ar
     7     4    34 1
     8     5     6 ar
     9     5    35 1
    10     7     6 ar
    11     6    36 1
    12     7     8 1
    13     8     9 1
    14     8    37 1
    15     8    38 1
    16     9    10 1
    17     9    39 1
    18     9    40 1
    19    11    10 1
    20    10    18 1
    21    10    12 1
    22    11    20 1
    23    12    13 1
    24    12    41 1
    25    12    42 1
    26    13    14 1
    27    13    17 1
    28    14    15 2
    29    14    43 1
    30    15    16 1
    31    17    16 2
    32    16    44 1
    33    17    45 1
    34    18    19 1
    35    20    19 1
    36    19    46 1
    37    19    47 1
    38    21    20 1
    39    20    48 1
    40    21    22 1
    41    21    49 1
    42    21    50 1
    43    23    22 1
    44    25    23 ar
    45    23    24 ar
    46    28    24 ar
    47    24    51 1
    48    26    25 ar
    49    26    27 ar
    50    26    52 1
    51    29    27 1
    52    27    28 ar
    53    28    53 1
    54    31    29 1
    55    30    29 1
    56    29    32 1
@<TRIPOS>SUBSTRUCTURE
     1 Q80         1 TEMP              0 ****  ****    0 ROOT
