@<TRIPOS>MOLECULE
Q80
   53    56     1     0     0
SMALL
bcc


@<TRIPOS>ATOM
      1 CLBF        0.2920    0.6500    0.2140 cl        1 Q80     -0.093400
      2 CAB         1.9840    0.4910    0.2060 ca        1 Q80      0.015400
      3 CAC         2.6880    0.4990    1.4140 ca        1 Q80     -0.122000
      4 CAD         4.0750    0.3670    1.4020 ca        1 Q80     -0.119000
      5 CAA         2.6630    0.3530   -1.0100 ca        1 Q80     -0.122000
      6 CAF         4.0490    0.2230   -1.0100 ca        1 Q80     -0.119000
      7 CAE         4.7660    0.2280    0.1930 ca        1 Q80     -0.081300
      8 CAG         6.2480    0.0960    0.1800 c3        1 Q80     -0.035100
      9 CAH         6.6730   -1.3450   -0.0230 c3        1 Q80     -0.077400
     10 CAI         8.1960   -1.4960   -0.0750 c3        1 Q80      0.329600
     11 OAP         8.7790   -1.0440    1.1450 os        1 Q80     -0.432600
     12 CAJ         8.5420   -2.9940   -0.3180 c3        1 Q80      0.015300
     13 NAK         9.9320   -3.3130   -0.3340 na        1 Q80     -0.206900
     14 CAO        10.7790   -3.4360    0.7830 cc        1 Q80      0.385400
     15 NAN        12.0360   -3.7530    0.4130 nd        1 Q80     -0.669000
     16 CAM        12.0150   -3.8360   -0.9800 cd        1 Q80      0.285200
     17 CAL        10.7220   -3.5640   -1.4620 cc        1 Q80     -0.251600
     18 OAS         8.7380   -0.6820   -1.1120 os        1 Q80     -0.430600
     19 CAR         9.8500    0.0770   -0.6290 c3        1 Q80      0.114400
     20 CAQ         9.8920   -0.1680    0.8850 c3        1 Q80      0.129100
     21 CAT         9.7270    1.0880    1.7170 c3        1 Q80     -0.047300
     22 SAU        10.9100    0.9760    3.0280 ss        1 Q80     -0.214400
     23 CAV        10.7530    2.4020    3.9290 ca        1 Q80      0.507600
     24 CBA        11.6220    2.5200    5.0420 ca        1 Q80     -0.247300
     25 NAW         9.8530    3.3640    3.6020 nb        1 Q80     -0.693000
     26 CAX         9.7960    4.4600    4.3740 ca        1 Q80      0.470200
     27 CAY        10.6210    4.6550    5.4980 ca        1 Q80     -0.314600
     28 CAZ        11.5500    3.6620    5.8320 ca        1 Q80     -0.025000
     29 CBB        10.4910    5.9120    6.3370 c3        1 Q80      0.699200
     30 FBD         9.5900    5.8110    7.3700 f         1 Q80     -0.235633
     31 FBE        11.6540    6.3130    6.9480 f         1 Q80     -0.235633
     32 FBC        10.0750    7.0210    5.6400 f         1 Q80     -0.235633
     33 HAC         2.1530    0.6100    2.3690 ha        1 Q80      0.148000
     34 HAD         4.6300    0.3760    2.3520 ha        1 Q80      0.138500
     35 HAA         2.1070    0.3500   -1.9590 ha        1 Q80      0.148000
     36 HAF         4.5870    0.1180   -1.9640 ha        1 Q80      0.138500
     37 HAG         6.6780    0.7240   -0.6470 hc        1 Q80      0.061200
     38 HAGA        6.6830    0.4720    1.1460 hc        1 Q80      0.061200
     39 HAH         6.2510   -1.7320   -0.9870 hc        1 Q80      0.064200
     40 HAHA        6.2880   -1.9780    0.8170 hc        1 Q80      0.064200
     41 HAJ         8.0460   -3.5840    0.5050 h1        1 Q80      0.077700
     42 HAJA        8.0920   -3.2820   -1.3100 h1        1 Q80      0.077700
     43 HAO        10.4190   -3.2830    1.8060 h5        1 Q80      0.068100
     44 HAM        12.9090   -4.0870   -1.5490 h4        1 Q80      0.043100
     45 HAL        10.3210   -3.5310   -2.4720 h4        1 Q80      0.180000
     46 HAR        10.7710   -0.2980   -1.1420 h1        1 Q80      0.070700
     47 HARA        9.6520    1.1430   -0.9040 h1        1 Q80      0.070700
     48 HAQ        10.8200   -0.7380    1.1790 h1        1 Q80      0.090700
     49 HAT         9.9090    2.0040    1.1050 h1        1 Q80      0.096700
     50 HATA        8.6850    1.1540    2.1210 h1        1 Q80      0.096700
     51 HBA        12.3370    1.7170    5.2700 ha        1 Q80      0.163000
     52 HAX         9.0560    5.2270    4.0750 h4        1 Q80      0.042100
     53 HAZ        12.2130    3.7910    6.7020 ha        1 Q80      0.160000
@<TRIPOS>BOND
     1    1    2 1   
     2    2    3 ar  
     3    2    5 ar  
     4    3    4 ar  
     5    3   33 1   
     6    4    7 ar  
     7    4   34 1   
     8    5    6 ar  
     9    5   35 1   
    10    6    7 ar  
    11    6   36 1   
    12    7    8 1   
    13    8    9 1   
    14    8   37 1   
    15    8   38 1   
    16    9   10 1   
    17    9   39 1   
    18    9   40 1   
    19   10   11 1   
    20   10   12 1   
    21   10   18 1   
    22   11   20 1   
    23   12   13 1   
    24   12   41 1   
    25   12   42 1   
    26   13   14 1   
    27   13   17 1   
    28   14   15 2   
    29   14   43 1   
    30   15   16 1   
    31   16   17 2   
    32   16   44 1   
    33   17   45 1   
    34   18   19 1   
    35   19   20 1   
    36   19   46 1   
    37   19   47 1   
    38   20   21 1   
    39   20   48 1   
    40   21   22 1   
    41   21   49 1   
    42   21   50 1   
    43   22   23 1   
    44   23   24 ar  
    45   23   25 ar  
    46   24   28 ar  
    47   24   51 1   
    48   25   26 ar  
    49   26   27 ar  
    50   26   52 1   
    51   27   28 ar  
    52   27   29 1   
    53   28   53 1   
    54   29   30 1   
    55   29   31 1   
    56   29   32 1   
@<TRIPOS>SUBSTRUCTURE
     1 Q80         1 TEMP              0 ****  ****    0 ROOT
