@<TRIPOS>MOLECULE
molecule
   82    86     1     0     0
SMALL
bcc


@<TRIPOS>ATOM
      1 N11          0.0000     0.0000     0.0000 ne         1 Q82      -0.553700
      2 O4           5.4970    -0.7720    -1.2780 oh         1 Q82      -0.609800
      3 O5           5.1560    -0.2210     1.6680 oh         1 Q82      -0.609800
      4 N7           2.0790     0.0000     1.1780 nh         1 Q82      -0.835600
      5 N2           2.0330     0.0060    -1.1190 nh         1 Q82      -0.835600
      6 C1           1.3220     0.0000     0.0000 c2         1 Q82       0.931100
      7 C2           1.7190     1.0090    -2.1410 c3         1 Q82       0.289600
      8 C3           3.1160    -0.9470    -1.3830 c3         1 Q82       0.246000
      9 C4           4.2930    -0.4400    -0.5840 c3         1 Q82       0.104100
     10 C5           4.3480    -1.0480     0.8290 c3         1 Q82       0.104100
     11 C6           2.9310    -1.1370     1.4150 c3         1 Q82       0.246000
     12 C7           2.0030     1.1080     2.1330 c3         1 Q82       0.289600
     13 C20          0.6800     0.4580    -3.0830 ca         1 Q82      -0.117300
     14 C21         -0.6620     0.6460    -2.8170 ca         1 Q82      -0.105500
     15 C22         -1.6150     0.1410    -3.6820 ca         1 Q82      -0.114500
     16 C23         -1.2260    -0.5520    -4.8120 ca         1 Q82      -0.080300
     17 C24          0.1170    -0.7400    -5.0790 ca         1 Q82      -0.114500
     18 C25          1.0700    -0.2310    -4.2160 ca         1 Q82      -0.105500
     19 C31          2.7190    -2.3470    -0.9140 c3         1 Q82      -0.053600
     20 C32          2.3590    -3.1940    -2.1080 ca         1 Q82      -0.092300
     21 C33          3.3340    -3.9360    -2.7480 ca         1 Q82      -0.121500
     22 C34          3.0030    -4.7130    -3.8430 ca         1 Q82      -0.128000
     23 C35          1.6980    -4.7470    -4.2970 ca         1 Q82      -0.128500
     24 C36          0.7230    -4.0060    -3.6560 ca         1 Q82      -0.128000
     25 C37          1.0520    -3.2330    -2.5590 ca         1 Q82      -0.121500
     26 C61          3.0550    -1.3340     2.9270 c3         1 Q82      -0.053600
     27 C62          3.7740    -2.6290     3.2070 ca         1 Q82      -0.092300
     28 C63          5.1430    -2.6290     3.4050 ca         1 Q82      -0.121500
     29 C64          5.8030    -3.8150     3.6620 ca         1 Q82      -0.128000
     30 C65          5.0960    -5.0020     3.7220 ca         1 Q82      -0.128500
     31 C66          3.7280    -5.0010     3.5250 ca         1 Q82      -0.128000
     32 C67          3.0660    -3.8140     3.2720 ca         1 Q82      -0.121500
     33 C70          2.9320     2.2120     1.6970 ca         1 Q82      -0.117300
     34 C71          2.4720     3.2090     0.8570 ca         1 Q82      -0.105500
     35 C72          3.3230     4.2220     0.4570 ca         1 Q82      -0.114500
     36 C73          4.6330     4.2380     0.8970 ca         1 Q82      -0.080300
     37 C74          5.0940     3.2380     1.7330 ca         1 Q82      -0.114500
     38 C75          4.2420     2.2280     2.1360 ca         1 Q82      -0.105500
     39 C12         -0.6770    -0.0070     1.1740 cg         1 Q82       0.330800
     40 N13         -1.2470    -0.0330     2.1550 n1         1 Q82      -0.415800
     41 C76          5.5600     5.3420     0.4600 c3         1 Q82       0.175200
     42 C26         -2.2650    -1.1040    -5.7540 c3         1 Q82       0.175200
     43 O76          5.4860     6.4230     1.3920 oh         1 Q82      -0.602300
     44 O26         -2.5710    -0.1260    -6.7510 oh         1 Q82      -0.602300
     45 HO5          6.0670    -0.3870     1.4890 ho         1 Q82       0.405500
     46 H21A         2.6110     1.2280    -2.7160 h1         1 Q82       0.063950
     47 H22A         1.3680     1.9150    -1.6620 h1         1 Q82       0.063950
     48 H3           3.3570    -0.9530    -2.4390 h1         1 Q82       0.090200
     49 H4           4.2180     0.6370    -0.4980 h1         1 Q82       0.067700
     50 H5           4.7760    -2.0410     0.7750 h1         1 Q82       0.067700
     51 H6           2.4490    -2.0110     0.9940 h1         1 Q82       0.090200
     52 H71A         0.9700     1.4140     2.2500 h1         1 Q82       0.063950
     53 H72A         2.3950     0.7870     3.0910 h1         1 Q82       0.063950
     54 H21         -0.9680     1.1900    -1.9310 ha         1 Q82       0.139000
     55 H22         -2.6680     0.2890    -3.4730 ha         1 Q82       0.133000
     56 H24          0.4220    -1.2830    -5.9650 ha         1 Q82       0.133000
     57 H25          2.1230    -0.3740    -4.4260 ha         1 Q82       0.139000
     58 H311         3.4760    -2.7310    -0.2410 hc         1 Q82       0.068700
     59 H312         1.7670    -2.3000    -0.3990 hc         1 Q82       0.068700
     60 H33          4.3570    -3.9090    -2.3920 ha         1 Q82       0.138000
     61 H34          3.7670    -5.2950    -4.3450 ha         1 Q82       0.130000
     62 H35          1.4390    -5.3560    -5.1550 ha         1 Q82       0.129000
     63 H36         -0.2990    -4.0330    -4.0130 ha         1 Q82       0.130000
     64 H37          0.2880    -2.6540    -2.0550 ha         1 Q82       0.138000
     65 H611         3.4850    -0.4460     3.3730 hc         1 Q82       0.068700
     66 H612         2.0730    -1.5100     3.3490 hc         1 Q82       0.068700
     67 H63          5.6970    -1.6990     3.3570 ha         1 Q82       0.138000
     68 H64          6.8750    -3.8160     3.8170 ha         1 Q82       0.130000
     69 H65          5.6150    -5.9320     3.9240 ha         1 Q82       0.129000
     70 H66          3.1740    -5.9310     3.5720 ha         1 Q82       0.130000
     71 H67          1.9940    -3.8130     3.1210 ha         1 Q82       0.138000
     72 H71          1.4440     3.1970     0.5130 ha         1 Q82       0.139000
     73 H72          2.9630     5.0040    -0.2010 ha         1 Q82       0.133000
     74 H74          6.1210     3.2500     2.0770 ha         1 Q82       0.133000
     75 H75          4.6030     1.4460     2.7940 ha         1 Q82       0.139000
     76 H761         5.2460     5.7180    -0.5060 h1         1 Q82       0.029700
     77 H762         6.5710     4.9580     0.3870 h1         1 Q82       0.029700
     78 H261        -2.1480    -2.1780    -5.8310 h1         1 Q82       0.029700
     79 H262        -3.2540    -0.8750    -5.3750 h1         1 Q82       0.029700
     80 H76          6.0910     7.0990     1.1380 ho         1 Q82       0.400500
     81 HO6         -3.3370    -0.3960    -7.2310 ho         1 Q82       0.400500
     82 HO4          5.9710     0.0180    -1.4810 ho         1 Q82       0.405500
@<TRIPOS>BOND
     1     1     6 2
     2     1    39 1
     3     2     9 1
     4     2    82 1
     5     3    10 1
     6     3    45 1
     7     4     6 1
     8     4    11 1
     9     4    12 1
    10     5     6 1
    11     5     7 1
    12     5     8 1
    13     7    13 1
    14     7    46 1
    15     7    47 1
    16     8     9 1
    17     8    19 1
    18     8    48 1
    19     9    10 1
    20     9    49 1
    21    10    11 1
    22    10    50 1
    23    11    26 1
    24    11    51 1
    25    12    33 1
    26    12    52 1
    27    12    53 1
    28    13    14 ar
    29    13    18 ar
    30    14    15 ar
    31    14    54 1
    32    15    16 ar
    33    15    55 1
    34    16    17 ar
    35    16    42 1
    36    17    18 ar
    37    17    56 1
    38    18    57 1
    39    19    20 1
    40    19    58 1
    41    19    59 1
    42    20    21 ar
    43    20    25 ar
    44    21    22 ar
    45    21    60 1
    46    22    23 ar
    47    22    61 1
    48    23    24 ar
    49    23    62 1
    50    24    25 ar
    51    24    63 1
    52    25    64 1
    53    26    27 1
    54    26    65 1
    55    26    66 1
    56    27    28 ar
    57    27    32 ar
    58    28    29 ar
    59    28    67 1
    60    29    30 ar
    61    29    68 1
    62    30    31 ar
    63    30    69 1
    64    31    32 ar
    65    31    70 1
    66    32    71 1
    67    33    34 ar
    68    33    38 ar
    69    34    35 ar
    70    34    72 1
    71    35    36 ar
    72    35    73 1
    73    36    37 ar
    74    36    41 1
    75    37    38 ar
    76    37    74 1
    77    38    75 1
    78    39    40 3
    79    41    43 1
    80    41    76 1
    81    41    77 1
    82    42    44 1
    83    42    78 1
    84    42    79 1
    85    43    80 1
    86    44    81 1
@<TRIPOS>SUBSTRUCTURE
     1 Q82         1 TEMP              0 ****  ****    0 ROOT
