@<TRIPOS>MOLECULE
Q82
   82    86     1     0     0
SMALL
bcc


@<TRIPOS>ATOM
      1 N11          0.0000     0.0000     0.0000 ne         1 Q82      -0.423700
      2 O4           5.4970    -0.7720    -1.2780 oh         1 Q82      -0.586800
      3 O5           5.1560    -0.2210     1.6680 oh         1 Q82      -0.586800
      4 N7           2.0790     0.0000     1.1780 nh         1 Q82      -0.498100
      5 N2           2.0330     0.0060    -1.1190 nh         1 Q82      -0.498100
      6 C1           1.3220     0.0000     0.0000 c2         1 Q82       0.645100
      7 C2           1.7190     1.0090    -2.1410 c3         1 Q82       0.229100
      8 C3           3.1160    -0.9470    -1.3830 c3         1 Q82       0.136000
      9 C4           4.2930    -0.4400    -0.5840 c3         1 Q82       0.135600
     10 C5           4.3480    -1.0480     0.8290 c3         1 Q82       0.135600
     11 C6           2.9310    -1.1370     1.4150 c3         1 Q82       0.136000
     12 C7           2.0030     1.1080     2.1330 c3         1 Q82       0.229100
     13 C20          0.6800     0.4580    -3.0830 ca         1 Q82      -0.124800
     14 C21         -0.6620     0.6460    -2.8170 ca         1 Q82      -0.086000
     15 C22         -1.6150     0.1410    -3.6820 ca         1 Q82      -0.084500
     16 C23         -1.2260    -0.5520    -4.8120 ca         1 Q82      -0.095800
     17 C24          0.1170    -0.7400    -5.0790 ca         1 Q82      -0.084500
     18 C25          1.0700    -0.2310    -4.2160 ca         1 Q82      -0.086000
     19 C31          2.7190    -2.3470    -0.9140 c3         1 Q82      -0.006100
     20 C32          2.3590    -3.1940    -2.1080 ca         1 Q82      -0.095800
     21 C33          3.3340    -3.9360    -2.7480 ca         1 Q82      -0.099000
     22 C34          3.0030    -4.7130    -3.8430 ca         1 Q82      -0.099250
     23 C35          1.6980    -4.7470    -4.2970 ca         1 Q82      -0.102500
     24 C36          0.7230    -4.0060    -3.6560 ca         1 Q82      -0.099250
     25 C37          1.0520    -3.2330    -2.5590 ca         1 Q82      -0.099000
     26 C61          3.0550    -1.3340     2.9270 c3         1 Q82      -0.006100
     27 C62          3.7740    -2.6290     3.2070 ca         1 Q82      -0.095800
     28 C63          5.1430    -2.6290     3.4050 ca         1 Q82      -0.099000
     29 C64          5.8030    -3.8150     3.6620 ca         1 Q82      -0.099250
     30 C65          5.0960    -5.0020     3.7220 ca         1 Q82      -0.102500
     31 C66          3.7280    -5.0010     3.5250 ca         1 Q82      -0.099250
     32 C67          3.0660    -3.8140     3.2720 ca         1 Q82      -0.099000
     33 C70          2.9320     2.2120     1.6970 ca         1 Q82      -0.124800
     34 C71          2.4720     3.2090     0.8570 ca         1 Q82      -0.086000
     35 C72          3.3230     4.2220     0.4570 ca         1 Q82      -0.084500
     36 C73          4.6330     4.2380     0.8970 ca         1 Q82      -0.095800
     37 C74          5.0940     3.2380     1.7330 ca         1 Q82      -0.084500
     38 C75          4.2420     2.2280     2.1360 ca         1 Q82      -0.086000
     39 C12         -0.6770    -0.0070     1.1740 cg         1 Q82       0.289800
     40 N13         -1.2610    -0.0160     2.1470 n1         1 Q82      -0.441800
     41 C76          5.5600     5.3420     0.4600 c3         1 Q82       0.247200
     42 C26         -2.2650    -1.1040    -5.7540 c3         1 Q82       0.247200
     43 O76          5.4860     6.4230     1.3920 oh         1 Q82      -0.580800
     44 O26         -2.5710    -0.1260    -6.7510 oh         1 Q82      -0.580800
     45 HO5          6.0610    -0.3050     1.4150 ho         1 Q82       0.393500
     46 H21A         2.5550     1.1010    -2.8250 h1         1 Q82       0.038950
     47 H22A         1.5350     1.9650    -1.6650 h1         1 Q82       0.038950
     48 H3           3.3570    -0.9530    -2.4390 h1         1 Q82       0.073700
     49 H4           4.2180     0.6370    -0.4980 h1         1 Q82       0.038700
     50 H5           4.7760    -2.0410     0.7750 h1         1 Q82       0.038700
     51 H6           2.4490    -2.0110     0.9940 h1         1 Q82       0.073700
     52 H71A         2.4800     0.8180     3.0620 h1         1 Q82       0.038950
     53 H72A         0.9650     1.3530     2.3220 h1         1 Q82       0.038950
     54 H21         -0.9680     1.1900    -1.9310 ha         1 Q82       0.115750
     55 H22         -2.6680     0.2880    -3.4730 ha         1 Q82       0.107500
     56 H24          0.4220    -1.2830    -5.9650 ha         1 Q82       0.107500
     57 H25          2.1230    -0.3740    -4.4260 ha         1 Q82       0.115750
     58 H311         3.5140    -2.7650    -0.3090 hc         1 Q82       0.046700
     59 H312         1.8110    -2.2880    -0.3260 hc         1 Q82       0.046700
     60 H33          4.3570    -3.9090    -2.3920 ha         1 Q82       0.114000
     61 H34          3.7670    -5.2950    -4.3450 ha         1 Q82       0.103000
     62 H35          1.4390    -5.3560    -5.1550 ha         1 Q82       0.102500
     63 H36         -0.2990    -4.0330    -4.0130 ha         1 Q82       0.103000
     64 H37          0.2880    -2.6540    -2.0550 ha         1 Q82       0.114000
     65 H611         2.0730    -1.5100     3.3500 hc         1 Q82       0.046700
     66 H612         3.4860    -0.4460     3.3730 hc         1 Q82       0.046700
     67 H63          5.6970    -1.6990     3.3580 ha         1 Q82       0.114000
     68 H64          6.8750    -3.8160     3.8170 ha         1 Q82       0.103000
     69 H65          5.6150    -5.9320     3.9240 ha         1 Q82       0.102500
     70 H66          3.1740    -5.9310     3.5720 ha         1 Q82       0.103000
     71 H67          1.9940    -3.8130     3.1210 ha         1 Q82       0.114000
     72 H71          1.4440     3.1970     0.5130 ha         1 Q82       0.115750
     73 H72          2.9630     5.0040    -0.2010 ha         1 Q82       0.107500
     74 H74          6.1210     3.2500     2.0770 ha         1 Q82       0.107500
     75 H75          4.6020     1.4460     2.7940 ha         1 Q82       0.115750
     76 H761         6.5740     4.9640     0.4100 h1         1 Q82      -0.000300
     77 H762         5.2600     5.7010    -0.5170 h1         1 Q82      -0.000300
     78 H261        -3.2460    -0.7520    -5.4560 h1         1 Q82      -0.000300
     79 H262        -2.2450    -2.1860    -5.7200 h1         1 Q82      -0.000300
     80 H76          6.0700     7.1120     1.1220 ho         1 Q82       0.387500
     81 HO6         -3.2960    -0.4270    -7.2730 ho         1 Q82       0.387500
     82 HO4          5.9530     0.0190    -1.5130 ho         1 Q82       0.393500
@<TRIPOS>BOND
     1     1     6 2   
     2     1    39 1   
     3     2     9 1   
     4     2    82 1   
     5     3    10 1   
     6     3    45 1   
     7     4     6 1   
     8     4    11 1   
     9     4    12 1   
    10     5     6 1   
    11     5     7 1   
    12     5     8 1   
    13     7    13 1   
    14     7    46 1   
    15     7    47 1   
    16     8     9 1   
    17     8    19 1   
    18     8    48 1   
    19     9    10 1   
    20     9    49 1   
    21    10    11 1   
    22    10    50 1   
    23    11    26 1   
    24    11    51 1   
    25    12    33 1   
    26    12    52 1   
    27    12    53 1   
    28    13    14 ar  
    29    13    18 ar  
    30    14    15 ar  
    31    14    54 1   
    32    15    16 ar  
    33    15    55 1   
    34    16    17 ar  
    35    16    42 1   
    36    17    18 ar  
    37    17    56 1   
    38    18    57 1   
    39    19    20 1   
    40    19    58 1   
    41    19    59 1   
    42    20    21 ar  
    43    20    25 ar  
    44    21    22 ar  
    45    21    60 1   
    46    22    23 ar  
    47    22    61 1   
    48    23    24 ar  
    49    23    62 1   
    50    24    25 ar  
    51    24    63 1   
    52    25    64 1   
    53    26    27 1   
    54    26    65 1   
    55    26    66 1   
    56    27    28 ar  
    57    27    32 ar  
    58    28    29 ar  
    59    28    67 1   
    60    29    30 ar  
    61    29    68 1   
    62    30    31 ar  
    63    30    69 1   
    64    31    32 ar  
    65    31    70 1   
    66    32    71 1   
    67    33    34 ar  
    68    33    38 ar  
    69    34    35 ar  
    70    34    72 1   
    71    35    36 ar  
    72    35    73 1   
    73    36    37 ar  
    74    36    41 1   
    75    37    38 ar  
    76    37    74 1   
    77    38    75 1   
    78    39    40 3   
    79    41    43 1   
    80    41    76 1   
    81    41    77 1   
    82    42    44 1   
    83    42    78 1   
    84    42    79 1   
    85    43    80 1   
    86    44    81 1   
@<TRIPOS>SUBSTRUCTURE
     1 Q82         1 TEMP              0 ****  ****    0 ROOT
