@<TRIPOS>MOLECULE
molecule
   29    30     1     0     0
SMALL
bcc


@<TRIPOS>ATOM
      1 C            0.0000     0.0000     0.0000 c          1 Q86       0.537100
      2 N            0.1990    -0.0080     2.4190 na         1 Q86      -0.067400
      3 O            1.2070     0.0000     0.0000 o          1 Q86      -0.476100
      4 CA          -0.7530     0.0000     1.3050 c3         1 Q86      -0.028700
      5 CAA         -1.5520    -1.1670    -5.5740 ca         1 Q86      -0.125000
      6 CAB         -1.8980     0.0330    -6.1660 ca         1 Q86      -0.129000
      7 CAC         -1.5510     1.2260    -5.5620 ca         1 Q86      -0.125000
      8 CAD         -0.8600     1.2210    -4.3650 ca         1 Q86      -0.124500
      9 CAE         -0.5140     0.0200    -3.7730 ca         1 Q86      -0.090300
     10 CAF         -0.8650    -1.1740    -4.3740 ca         1 Q86      -0.124500
     11 CAG          0.2400     0.0130    -2.4670 c3         1 Q86      -0.024100
     12 CAH         -0.7540     0.0070    -1.3040 c3         1 Q86      -0.175400
     13 NAL          1.2320    -0.9340     2.6360 nc         1 Q86      -0.524800
     14 CAM          1.8370    -0.5710     3.7380 cd         1 Q86       0.564900
     15 NAN          1.2450     0.5210     4.2180 nd         1 Q86      -0.760000
     16 CAO          0.2610     0.8740     3.4320 cc         1 Q86       0.444400
     17 HA          -1.3720     0.8870     1.3650 h1         1 Q86       0.081700
     18 HAA         -1.3800    -0.8820     1.3600 h1         1 Q86       0.081700
     19 HAB         -2.4370     0.0380    -7.1060 ha         1 Q86       0.130000
     20 HAC         -1.8220     2.1670    -6.0260 ha         1 Q86       0.130000
     21 HAD         -0.5870     2.1560    -3.8930 ha         1 Q86       0.130500
     22 HAF         -0.5940    -2.1150    -3.9100 ha         1 Q86       0.130500
     23 HAG          0.8630     0.8970    -2.4060 hc         1 Q86       0.065200
     24 HAGA         0.8630    -0.8720    -2.4150 hc         1 Q86       0.065200
     25 HAH         -1.3760     0.8920    -1.3570 hc         1 Q86       0.068700
     26 HAHA        -1.3770    -0.8770    -1.3660 hc         1 Q86       0.068700
     27 HAM          2.6820    -1.0790     4.1880 h5         1 Q86       0.080100
     28 HAO         -0.3940     1.7240     3.5750 h5         1 Q86       0.066100
     29 HAAA        -1.8250    -2.1030    -6.0460 ha         1 Q86       0.130000
@<TRIPOS>BOND
     1     3     1 2
     2     4     1 1
     3     1    12 1
     4    16     2 1
     5    13     2 1
     6     2     4 1
     7     4    17 1
     8     4    18 1
     9    10     5 ar
    10     5     6 ar
    11     5    29 1
    12     6     7 ar
    13     6    19 1
    14     8     7 ar
    15     7    20 1
    16     9     8 ar
    17     8    21 1
    18    10     9 ar
    19    11     9 1
    20    10    22 1
    21    12    11 1
    22    11    23 1
    23    11    24 1
    24    12    25 1
    25    12    26 1
    26    14    13 2
    27    15    14 1
    28    14    27 1
    29    15    16 2
    30    16    28 1
@<TRIPOS>SUBSTRUCTURE
     1 Q86         1 TEMP              0 ****  ****    0 ROOT
