@<TRIPOS>MOLECULE
Q86
   29    30     1     0     0
SMALL
bcc


@<TRIPOS>ATOM
      1 C           0.1850    0.4530   -0.0090 c         1 Q86      0.555100
      2 N           0.1310   -0.2130    2.4040 na        1 Q86     -0.067400
      3 O           1.3270    0.9150    0.0310 o         1 Q86     -0.516100
      4 CA         -0.6360    0.1700    1.2430 c3        1 Q86     -0.049700
      5 CAA        -1.0870   -1.3060   -5.4380 ca        1 Q86     -0.126500
      6 CAB        -1.8680   -0.3740   -6.1220 ca        1 Q86     -0.128000
      7 CAC        -1.9980    0.9220   -5.6230 ca        1 Q86     -0.126500
      8 CAD        -1.3500    1.2860   -4.4430 ca        1 Q86     -0.126000
      9 CAE        -0.5670    0.3550   -3.7520 ca        1 Q86     -0.087300
     10 CAF        -0.4390   -0.9440   -4.2590 ca        1 Q86     -0.126000
     11 CAG         0.1350    0.7400   -2.4980 c3        1 Q86     -0.032100
     12 CAH        -0.5520    0.1540   -1.2800 c3        1 Q86     -0.176400
     13 NAL        -0.2250   -1.2060    3.2460 nc        1 Q86     -0.525800
     14 CAM         0.7340   -1.1950    4.2110 cd        1 Q86      0.507900
     15 NAN         1.7150   -0.2040    4.0030 nd        1 Q86     -0.688000
     16 CAO         1.3190    0.4000    2.8660 cc        1 Q86      0.427400
     17 HA         -1.3880   -0.6400    1.0120 h1        1 Q86      0.089200
     18 HAA        -1.2050    1.1170    1.4820 h1        1 Q86      0.089200
     19 HAB        -2.3790   -0.6590   -7.0530 ha        1 Q86      0.133000
     20 HAC        -2.6100    1.6610   -6.1610 ha        1 Q86      0.133000
     21 HAD        -1.4520    2.3110   -4.0560 ha        1 Q86      0.131500
     22 HAF         0.1820   -1.6790   -3.7240 ha        1 Q86      0.131500
     23 HAG         1.1990    0.3780   -2.5300 hc        1 Q86      0.064200
     24 HAGA        0.1750    1.8580   -2.3990 hc        1 Q86      0.064200
     25 HAH        -0.6240   -0.9630   -1.3850 hc        1 Q86      0.076700
     26 HAHA       -1.5990    0.5520   -1.2000 hc        1 Q86      0.076700
     27 HAM         0.7560   -1.8800    5.0640 h5        1 Q86      0.072100
     28 HAO         1.8180    1.2150    2.3260 h5        1 Q86      0.090100
     29 HAAA       -0.9800   -2.3280   -5.8310 ha        1 Q86      0.133000
@<TRIPOS>BOND
     1    1    3 2   
     2    1    4 1   
     3    1   12 1   
     4    2    4 1   
     5    2   13 1   
     6    2   16 1   
     7    4   17 1   
     8    4   18 1   
     9    5    6 ar  
    10    5   10 ar  
    11    5   29 1   
    12    6    7 ar  
    13    6   19 1   
    14    7    8 ar  
    15    7   20 1   
    16    8    9 ar  
    17    8   21 1   
    18    9   10 ar  
    19    9   11 1   
    20   10   22 1   
    21   11   12 1   
    22   11   23 1   
    23   11   24 1   
    24   12   25 1   
    25   12   26 1   
    26   13   14 2   
    27   14   15 1   
    28   14   27 1   
    29   15   16 2   
    30   16   28 1   
@<TRIPOS>SUBSTRUCTURE
     1 Q86         1 TEMP              0 ****  ****    0 ROOT
