@<TRIPOS>MOLECULE
Q88
   17    18     1     0     0
SMALL
bcc


@<TRIPOS>ATOM
      1 N1           0.0000     0.0000     0.0000 nb         1 Q88      -0.648000
      2 C2           1.3200     0.0000     0.0000 ca         1 Q88       0.617900
      3 N3           2.0260     0.0000     1.1120 nb         1 Q88      -0.610000
      4 C4           1.4240     0.0020     2.2950 ca         1 Q88       0.203800
      5 C5           0.0210     0.0030     2.3490 ca         1 Q88      -0.135200
      6 C6          -0.6880     0.0020     1.1370 ca         1 Q88       0.573200
      7 N6          -2.0740     0.0030     1.1270 nv         1 Q88      -0.642500
      8 N7          -0.3330     0.0030     3.6580 nc         1 Q88      -0.574100
      9 C8           0.7470     0.0030     4.4000 cd         1 Q88       0.319700
     10 N8           0.7610     0.0020     5.7810 nv         1 Q88      -0.474800
     11 N9           1.8570     0.0010     3.6020 na         1 Q88       0.131000
     12 H2           1.8420    -0.0020    -0.9490 h5         1 Q88      -0.001900
     13 HN6         -2.5750    -0.8630     1.1090 hn         1 Q88       0.278800
     14 HN6A        -2.5730     0.8700     1.1080 hn         1 Q88       0.278800
     15 HN8         -0.1010     0.0030     6.2900 hn         1 Q88       0.275800
     16 HN8A         1.6320     0.0020     6.2730 hn         1 Q88       0.275800
     17 HN9          2.8090     0.0010     3.9100 hn         1 Q88       0.131700
@<TRIPOS>BOND
     1     1     2 ar  
     2     1     6 ar  
     3     2     3 ar  
     4     2    12 1   
     5     3     4 ar  
     6     4     5 ar  
     7     4    11 1   
     8     5     6 ar  
     9     5     8 1   
    10     6     7 1   
    11     7    13 1   
    12     7    14 1   
    13     8     9 2   
    14     9    10 1   
    15     9    11 1   
    16    10    15 1   
    17    10    16 1   
    18    11    17 1   
@<TRIPOS>SUBSTRUCTURE
     1 Q88         1 TEMP              0 ****  ****    0 ROOT
