@<TRIPOS>MOLECULE
molecule
   17    18     1     0     0
SMALL
bcc


@<TRIPOS>ATOM
      1 N1           0.0000     0.0000     0.0000 nb         1 Q88      -0.763000
      2 C2           1.3200     0.0000     0.0000 ca         1 Q88       0.686900
      3 N3           2.0260     0.0000     1.1120 nb         1 Q88      -0.750000
      4 C4           1.4240     0.0020     2.2950 ca         1 Q88       0.434800
      5 C5           0.0210     0.0030     2.3490 ca         1 Q88      -0.117200
      6 C6          -0.6880     0.0020     1.1370 ca         1 Q88       0.752200
      7 N6          -2.0740     0.0030     1.1270 nv         1 Q88      -1.071500
      8 N7          -0.3330     0.0030     3.6580 nc         1 Q88      -0.645100
      9 C8           0.7470     0.0030     4.4000 cd         1 Q88       0.672700
     10 N8           0.7610     0.0020     5.7810 nv         1 Q88      -0.966800
     11 N9           1.8570     0.0010     3.6020 na         1 Q88      -0.393000
     12 H2           1.8420    -0.0020    -0.9490 h5         1 Q88       0.061100
     13 HN6         -2.5750    -0.8630     1.1090 hn         1 Q88       0.441800
     14 HN6A        -2.5730     0.8700     1.1080 hn         1 Q88       0.441800
     15 HN8         -0.1010     0.0030     6.2900 hn         1 Q88       0.453800
     16 HN8A         1.6320     0.0020     6.2730 hn         1 Q88       0.453800
     17 HN9          2.8090     0.0010     3.9100 hn         1 Q88       0.308700
@<TRIPOS>BOND
     1     1     2 ar
     2     1     6 ar
     3     2     3 ar
     4     3     4 ar
     5     4     5 ar
     6     4    11 1
     7     5     6 ar
     8     5     8 1
     9     6     7 1
    10     8     9 2
    11     9    10 1
    12     9    11 1
    13     2    12 1
    14     7    13 1
    15     7    14 1
    16    10    15 1
    17    10    16 1
    18    11    17 1
@<TRIPOS>SUBSTRUCTURE
     1 Q88         1 TEMP              0 ****  ****    0 ROOT
