@<TRIPOS>MOLECULE
molecule
   19    20     1     0     0
SMALL
bcc


@<TRIPOS>ATOM
      1 NAA          0.0000     0.0000     0.0000 nv         1 Q8A      -0.975200
      2 CAB          5.0070     0.0000     0.0000 ca         1 Q8A      -0.257300
      3 CAC          1.5820    -0.0010    -3.3260 ca         1 Q8A      -0.119000
      4 CAD          4.0010     0.0000     0.9630 ca         1 Q8A       0.423200
      5 CAE          0.6160    -0.0010    -2.3230 ca         1 Q8A      -0.144000
      6 CAF          4.6820    -0.0000    -1.3260 ca         1 Q8A      -0.082000
      7 CAG          2.9100    -0.0010    -3.0200 ca         1 Q8A      -0.121000
      8 NAH          2.7330    -0.0000     0.6330 nb         1 Q8A      -0.666000
      9 CAI          0.9780    -0.0010    -0.9930 ca         1 Q8A       0.133300
     10 CAJ          3.3190    -0.0010    -1.6760 ca         1 Q8A      -0.149300
     11 CAK          2.3470    -0.0010    -0.6460 ca         1 Q8A       0.398600
     12 HNAA        -0.3610     0.8670     0.3460 hn         1 Q8A       0.431800
     13 HNAB        -0.3610    -0.8660     0.3470 hn         1 Q8A       0.431800
     14 HAC          1.2740    -0.0020    -4.3640 ha         1 Q8A       0.130000
     15 HAD          4.2740     0.0000     2.0120 h4         1 Q8A       0.021100
     16 HAE         -0.4340    -0.0020    -2.5920 ha         1 Q8A       0.139000
     17 HAF          5.4520    -0.0000    -2.0890 ha         1 Q8A       0.138000
     18 HAG          3.6490    -0.0010    -3.8110 ha         1 Q8A       0.132000
     19 HAB          6.0480     0.0000     0.3030 ha         1 Q8A       0.135000
@<TRIPOS>BOND
     1     1     9 1
     2     2     4 ar
     3     2     6 ar
     4     3     5 ar
     5     3     7 ar
     6     4     8 ar
     7     5     9 ar
     8     6    10 ar
     9     7    10 ar
    10     8    11 ar
    11     9    11 ar
    12    10    11 ar
    13     1    12 1
    14     1    13 1
    15     2    19 1
    16     3    14 1
    17     4    15 1
    18     5    16 1
    19     6    17 1
    20     7    18 1
@<TRIPOS>SUBSTRUCTURE
     1 Q8A         1 TEMP              0 ****  ****    0 ROOT
