@<TRIPOS>MOLECULE
Q8A
   19    20     1     0     0
SMALL
bcc


@<TRIPOS>ATOM
      1 NAA          0.0000     0.0000     0.0000 nv         1 Q8A      -0.542200
      2 CAB          5.0070     0.0000     0.0000 ca         1 Q8A      -0.224300
      3 CAC          1.5820    -0.0010    -3.3260 ca         1 Q8A      -0.091000
      4 CAD          4.0010     0.0000     0.9630 ca         1 Q8A       0.404200
      5 CAE          0.6160    -0.0010    -2.3230 ca         1 Q8A      -0.113000
      6 CAF          4.6820    -0.0000    -1.3260 ca         1 Q8A      -0.057000
      7 CAG          2.9100    -0.0010    -3.0200 ca         1 Q8A      -0.089000
      8 NAH          2.7330    -0.0000     0.6330 nb         1 Q8A      -0.559000
      9 CAI          0.9780    -0.0010    -0.9930 ca         1 Q8A      -0.004700
     10 CAJ          3.3190    -0.0010    -1.6760 ca         1 Q8A      -0.143300
     11 CAK          2.3470    -0.0010    -0.6460 ca         1 Q8A       0.357600
     12 HNAA        -0.3610     0.8670     0.3460 hn         1 Q8A       0.274800
     13 HNAB        -0.3610    -0.8660     0.3470 hn         1 Q8A       0.274800
     14 HAC          1.2740    -0.0020    -4.3640 ha         1 Q8A       0.101000
     15 HAD          4.2740     0.0000     2.0120 h4         1 Q8A      -0.023900
     16 HAE         -0.4340    -0.0020    -2.5920 ha         1 Q8A       0.109000
     17 HAF          5.4520    -0.0000    -2.0890 ha         1 Q8A       0.110000
     18 HAG          3.6490    -0.0010    -3.8110 ha         1 Q8A       0.106000
     19 HAB          6.0480     0.0000     0.3030 ha         1 Q8A       0.111000
@<TRIPOS>BOND
     1     1     9 1   
     2     1    12 1   
     3     1    13 1   
     4     2     4 ar  
     5     2     6 ar  
     6     2    19 1   
     7     3     5 ar  
     8     3     7 ar  
     9     3    14 1   
    10     4     8 ar  
    11     4    15 1   
    12     5     9 ar  
    13     5    16 1   
    14     6    10 ar  
    15     6    17 1   
    16     7    10 ar  
    17     7    18 1   
    18     8    11 ar  
    19     9    11 ar  
    20    10    11 ar  
@<TRIPOS>SUBSTRUCTURE
     1 Q8A         1 TEMP              0 ****  ****    0 ROOT
