@<TRIPOS>MOLECULE
molecule
   29    31     1     0     0
SMALL
bcc


@<TRIPOS>ATOM
      1 N            0.0000     0.0000     0.0000 nb         1 Q92      -0.680000
      2 O           -7.0830    -0.0160     4.8410 o          1 Q92      -0.834800
      3 C1          -5.0230    -0.0110     5.9420 ca         1 Q92      -0.105600
      4 C10          1.3110     0.0000     0.0000 ca         1 Q92       0.408200
      5 C11          2.0440     0.0000     1.1850 ca         1 Q92      -0.268300
      6 C12          1.3960    -0.0010     2.3860 ca         1 Q92      -0.084000
      7 C13         -0.0120    -0.0010     2.3830 ca         1 Q92      -0.143300
      8 C14         -0.7430    -0.0010     3.5790 ca         1 Q92      -0.139000
      9 C15         -4.2960    -0.0060     4.7510 ca         1 Q92      -0.084000
     10 C2          -4.3510    -0.0060     7.1660 ca         1 Q92      -0.079000
     11 C3          -2.9710    -0.0010     7.1990 ca         1 Q92      -0.166000
     12 C4          -2.2470    -0.0010     6.0220 ca         1 Q92      -0.134000
     13 C5          -2.9050    -0.0000     4.7930 cp         1 Q92      -0.094000
     14 C6          -2.1250    -0.0010     3.5310 cp         1 Q92       0.013000
     15 C7          -2.7940     0.0000     2.2980 ca         1 Q92      -0.105000
     16 C8          -2.1030    -0.0010     1.1290 ca         1 Q92      -0.174300
     17 C9          -0.6960    -0.0000     1.1410 ca         1 Q92       0.402600
     18 O1          -7.2010    -0.0230     7.0580 o          1 Q92      -0.834800
     19 H5           1.8380     0.0010    -0.9460 h4         1 Q92       0.009100
     20 H6           3.1270    -0.0000     1.1530 ha         1 Q92       0.124000
     21 H7           1.9500    -0.0010     3.3170 ha         1 Q92       0.132000
     22 H8          -0.2340    -0.1410     4.5250 ha         1 Q92       0.137000
     23 H9          -4.8120    -0.0050     3.7990 ha         1 Q92       0.149000
     24 H           -4.9140    -0.0060     8.0920 ha         1 Q92       0.156000
     25 H1          -2.4540     0.0010     8.1510 ha         1 Q92       0.108000
     26 H2          -1.1640     0.0040     6.0550 ha         1 Q92       0.106000
     27 H3          -3.8770     0.0000     2.2780 ha         1 Q92       0.156000
     28 H4          -2.6350     0.0000     0.1850 ha         1 Q92       0.143000
     29 C           -6.5000    -0.0170     5.9070 c          1 Q92       0.882200
@<TRIPOS>BOND
     1    11    10 ar
     2    11    12 ar
     3    10     3 ar
     4     2    29 1
     5    12    13 ar
     6     3    29 1
     7     3     9 ar
     8    29    18 1
     9    13     9 ar
    10    13    14 1
    11    14    15 ar
    12    14     8 ar
    13    15    16 ar
    14    16    17 ar
    15     8     7 ar
    16    17     7 ar
    17    17     1 ar
    18     7     6 ar
    19     1     4 ar
    20     6     5 ar
    21     4     5 ar
    22     4    19 1
    23     5    20 1
    24     6    21 1
    25     8    22 1
    26     9    23 1
    27    10    24 1
    28    11    25 1
    29    12    26 1
    30    15    27 1
    31    16    28 1
@<TRIPOS>SUBSTRUCTURE
     1 Q92         1 TEMP              0 ****  ****    0 ROOT
