@<TRIPOS>MOLECULE
molecule
   51    53     1     0     0
SMALL
bcc


@<TRIPOS>ATOM
      1 CAA          0.0000     0.0000     0.0000 c3         1 Q97      -0.100100
      2 CAB         10.2060    -0.5500     1.8290 c3         1 Q97      -0.087100
      3 CAE          7.1740    -3.8470     0.1570 ca         1 Q97      -0.151500
      4 CAF          5.9050    -4.2910     2.1560 ca         1 Q97      -0.151500
      5 CAG          8.3610     3.4870     3.8820 ca         1 Q97      -0.154500
      6 CAH          8.7790     2.0950     5.8010 ca         1 Q97      -0.154500
      7 CAI          3.4550    -0.0020     3.3210 ca         1 Q97      -0.246500
      8 CAJ          4.0980    -0.0020     1.0010 ca         1 Q97      -0.246500
      9 CAK          7.7350    -2.7390     0.7520 ca         1 Q97      -0.105500
     10 CAL          6.4590    -3.1840     2.7600 ca         1 Q97      -0.105500
     11 CAM          7.8310     2.4070     3.2090 ca         1 Q97      -0.105000
     12 CAN          8.2510     1.0100     5.1340 ca         1 Q97      -0.105000
     13 CAO          4.7820    -0.0020     3.6930 ca         1 Q97      -0.054500
     14 CAP          5.4270    -0.0020     1.3650 ca         1 Q97      -0.054500
     15 CAQ          1.5300     0.0000     0.0000 c3         1 Q97       0.237400
     16 CAR          9.4710    -1.0100     3.0890 c3         1 Q97      -0.048200
     17 OAS          2.0060     0.0000     1.3460 os         1 Q97      -0.437900
     18 CAU          7.2040    -0.0020     3.1120 ce         1 Q97      -0.015400
     19 CAV          6.2590    -4.6260     0.8550 ca         1 Q97       0.098100
     20 CAW          8.8360     3.3350     5.1780 ca         1 Q97       0.102100
     21 CAX          3.1090    -0.0020     1.9760 ca         1 Q97       0.271100
     22 CAY          7.3810    -2.3970     2.0620 ca         1 Q97      -0.048800
     23 CAZ          7.7730     1.1600     3.8310 ca         1 Q97      -0.048800
     24 CBA          5.7790    -0.0020     2.7160 ca         1 Q97      -0.119800
     25 HAA         -0.3610    -0.0080    -1.0210 hc         1 Q97       0.052700
     26 HAAA        -0.3610     0.8880     0.5040 hc         1 Q97       0.052700
     27 HAAB        -0.3610    -0.8810     0.5170 hc         1 Q97       0.052700
     28 HAB          9.5220    -0.0040     1.1910 hc         1 Q97       0.036367
     29 HABA        10.5850    -1.4150     1.2960 hc         1 Q97       0.036367
     30 HABB        11.0330     0.0930     2.1070 hc         1 Q97       0.036367
     31 HOAC         6.2630    -6.4660     0.4080 ho         1 Q97       0.417000
     32 HOAD         8.6730     4.8370     6.3210 ho         1 Q97       0.419000
     33 HAE          7.4470    -4.1130    -0.8570 ha         1 Q97       0.140000
     34 HAF          5.1910    -4.9010     2.6960 ha         1 Q97       0.140000
     35 HAG          8.4070     4.4560     3.4000 ha         1 Q97       0.140000
     36 HAH          9.1500     1.9790     6.8120 ha         1 Q97       0.140000
     37 HAI          2.6810    -0.0020     4.0790 ha         1 Q97       0.135500
     38 HAJ          3.8240    -0.0020    -0.0470 ha         1 Q97       0.135500
     39 HAK          8.4480    -2.1330     0.2070 ha         1 Q97       0.138000
     40 HAL          6.1820    -2.9240     3.7750 ha         1 Q97       0.138000
     41 HAM          7.4610     2.5270     2.1980 ha         1 Q97       0.138500
     42 HAN          8.2070     0.0430     5.6200 ha         1 Q97       0.138500
     43 HAO          5.0510    -0.0020     4.7420 ha         1 Q97       0.132500
     44 HAP          6.1980    -0.0020     0.6040 ha         1 Q97       0.132500
     45 HAQ          1.8910     0.8850    -0.5110 h1         1 Q97       0.032700
     46 HAQA         1.8910    -0.8850    -0.5110 h1         1 Q97       0.032700
     47 HAR          9.6630    -0.3110     3.8940 hc         1 Q97       0.055200
     48 HARA         9.8230    -1.9940     3.3740 hc         1 Q97       0.055200
     49 OAD          9.3570     4.4010     5.8390 oh         1 Q97      -0.523100
     50 CAT          7.9910    -1.0660     2.8140 cf         1 Q97      -0.048400
     51 OAC          5.7090    -5.7180     0.2640 oh         1 Q97      -0.523100
@<TRIPOS>BOND
     1     1    15 1
     2     2    16 1
     3    51    19 1
     4    49    20 1
     5     3     9 ar
     6     3    19 ar
     7     4    10 ar
     8     4    19 ar
     9     5    11 ar
    10     5    20 ar
    11     6    12 ar
    12     6    20 ar
    13     7    13 ar
    14     7    21 ar
    15     8    14 ar
    16     8    21 ar
    17     9    22 ar
    18    10    22 ar
    19    11    23 ar
    20    12    23 ar
    21    13    24 ar
    22    14    24 ar
    23    15    17 1
    24    16    50 1
    25    17    21 1
    26    50    18 2
    27    50    22 1
    28    18    23 1
    29    18    24 1
    30     1    25 1
    31     1    26 1
    32     1    27 1
    33     2    28 1
    34     2    29 1
    35     2    30 1
    36    51    31 1
    37    49    32 1
    38     3    33 1
    39     4    34 1
    40     5    35 1
    41     6    36 1
    42     7    37 1
    43     8    38 1
    44     9    39 1
    45    10    40 1
    46    11    41 1
    47    12    42 1
    48    13    43 1
    49    14    44 1
    50    15    45 1
    51    15    46 1
    52    16    47 1
    53    16    48 1
@<TRIPOS>SUBSTRUCTURE
     1 Q97         1 TEMP              0 ****  ****    0 ROOT
