@<TRIPOS>MOLECULE
Q97
   51    49     1     0     0
SMALL
bcc


@<TRIPOS>ATOM
      1 CAA         0.3640    0.5660   -1.9330 c1        1 Q97     -0.052000
      2 CAB        11.5940   -0.9110    2.8900 c1        1 Q97     -0.224500
      3 CAE         7.3410   -4.0410   -0.3580 c1        1 Q97     -0.175000
      4 CAF         6.0270   -4.1680    1.7380 c2        1 Q97     -0.158000
      5 CAG         7.6560    3.5590    4.3790 c2        1 Q97     -0.142000
      6 CAH         9.3370    2.1590    5.5080 c1        1 Q97     -0.049000
      7 CAI         3.4260   -0.3850    4.1220 ca        1 Q97     -0.187000
      8 CAJ         3.6200    0.3230    1.7950 ca        1 Q97     -0.187000
      9 CAK         8.0890   -3.5150   -1.1320 c1        1 Q97     -0.157000
     10 CAL         6.3960   -2.9240    2.3570 c2        1 Q97     -0.091000
     11 CAM         7.1090    2.4090    3.7250 c2        1 Q97     -0.140000
     12 CAN         8.7870    0.9920    4.8380 c3        1 Q97     -0.209000
     13 CAO         4.8120   -0.3830    4.2260 ca        1 Q97     -0.081000
     14 CAP         5.0070    0.3190    1.9170 ca        1 Q97     -0.081000
     15 CAQ         0.5920    0.4060   -0.5180 c3        1 Q97     -0.315000
     16 CAR        11.9370   -0.1730    3.7660 c1        1 Q97     -0.224500
     17 OAS         1.4570   -0.0500    2.8540 oh        1 Q97     -0.252000
     18 CAU         7.0770   -0.0160    3.2600 c2        1 Q97     -0.046000
     19 CAV         6.4540   -4.6590    0.5480 c2        1 Q97      0.139000
     20 CAW         8.7230    3.4270    5.2310 c2        1 Q97     -0.023000
     21 CAX         2.8320   -0.0300    2.8990 ca        1 Q97      0.078000
     22 CAY         7.5130   -2.2120    2.1180 c2        1 Q97     -0.150000
     23 CAZ         7.6310    1.1670    3.9210 c2        1 Q97     -0.059000
     24 CBA         5.6140   -0.0360    3.1280 ca        1 Q97     -0.077000
     25 HAA         1.0460    1.3610   -0.1340 hc        1 Q97      0.110000
     26 HAAA       -0.2880    0.1450    0.1230 hc        1 Q97      0.110000
     27 HAAB       -0.6530    0.3600   -2.3000 ha        1 Q97      0.041000
     28 HAB        10.8370   -2.7020    0.3000 ha        1 Q97      0.001000
     29 HABA       10.1820   -2.7670    0.1390 ha        1 Q97      0.001000
     30 HABB       11.3000   -1.5690    2.1100 ha        1 Q97      0.226000
     31 HOAC        6.2620   -6.1170   -0.6960 ho        1 Q97      0.223000
     32 HOAD        8.8000    5.2920    5.6410 ho        1 Q97      0.202000
     33 HAE         8.7500   -3.0490   -1.8200 ha        1 Q97      0.231000
     34 HAF         5.2990   -4.7790    2.3040 ha        1 Q97      0.150000
     35 HAG         7.1920    4.5360    4.1740 ha        1 Q97      0.133000
     36 HAH         9.6610    0.5210    4.2830 hc        1 Q97      0.174500
     37 HAI         2.7890   -0.6570    4.9760 ha        1 Q97      0.143500
     38 HAJ         3.1470    0.5990    0.8410 ha        1 Q97      0.143500
     39 HAK         8.2610   -2.5740    1.3870 ha        1 Q97      0.130000
     40 HAL         5.6740   -2.5660    3.1170 ha        1 Q97      0.137000
     41 HAM         6.2470    2.5600    3.0560 ha        1 Q97      0.142000
     42 HAN         8.5170    0.2510    5.6510 hc        1 Q97      0.174500
     43 HAO         5.2850   -0.6580    5.1810 ha        1 Q97      0.141000
     44 HAP         5.6300    0.5930    1.0520 ha        1 Q97      0.141000
     45 HAQ         1.3710   -0.4000   -0.4020 hc        1 Q97      0.110000
     46 HAQA        1.1840    0.1970    1.9570 ho        1 Q97      0.216000
     47 HAR         8.9850   -0.8640    2.8870 ha        1 Q97      0.130000
     48 HARA       12.2350    0.4850    4.5470 ha        1 Q97      0.226000
     49 OAD         9.2920    4.4950    5.8870 oh        1 Q97     -0.219000
     50 CAT         7.8860   -0.9890    2.7870 c2        1 Q97     -0.097000
     51 OAC         5.9420   -5.8990    0.1900 oh        1 Q97     -0.257000
@<TRIPOS>BOND
     1    1   15 1   
     2    1   27 1   
     3    2   16 1   
     4    2   30 1   
     5    3    9 1   
     6    3   19 1   
     7    4   10 1   
     8    4   19 1   
     9    4   34 1   
    10    5   11 1   
    11    5   20 1   
    12    5   35 1   
    13    6   12 1   
    14    6   20 1   
    15    7   13 1   
    16    7   21 1   
    17    7   37 1   
    18    8   14 1   
    19    8   21 1   
    20    8   38 1   
    21    9   33 1   
    22   10   22 1   
    23   10   40 1   
    24   11   23 1   
    25   11   41 1   
    26   12   23 1   
    27   12   36 1   
    28   12   42 1   
    29   13   24 1   
    30   13   43 1   
    31   14   24 1   
    32   14   44 1   
    33   15   25 1   
    34   15   26 1   
    35   15   45 1   
    36   16   48 1   
    37   17   21 1   
    38   17   46 1   
    39   18   23 1   
    40   18   24 1   
    41   18   50 1   
    42   19   51 1   
    43   20   49 1   
    44   22   39 1   
    45   22   50 1   
    46   28   29 1   
    47   31   51 1   
    48   32   49 1   
    49   47   50 1   
@<TRIPOS>SUBSTRUCTURE
     1 Q97         1 TEMP              0 ****  ****    0 ROOT
