@<TRIPOS>MOLECULE
Q9C
   35    34     1     0     0
SMALL
bcc


@<TRIPOS>ATOM
      1 N            0.0000     0.0000     0.0000 nz         1 Q9C       0.087400
      2 C           10.0440     0.0020     7.0450 c          1 Q9C       0.572100
      3 O            9.4090     0.0030     8.0790 o          1 Q9C      -0.641100
      4 N01          3.9980     0.0010     2.8280 n7         1 Q9C      -0.578200
      5 N02          9.4020     0.0010     5.8610 ns         1 Q9C      -0.211900
      6 C01          3.5090     0.0000     1.4430 c3         1 Q9C       0.157800
      7 C02          1.4690     0.0000     0.0000 c3         1 Q9C      -0.051200
      8 C03          5.4660     0.0000     2.8680 c3         1 Q9C       0.144800
      9 C04          7.9380     0.0020     5.8210 c3         1 Q9C       0.054000
     10 C05          1.9780     0.0000     1.4420 c3         1 Q9C      -0.040400
     11 C06          5.9370     0.0010     4.3240 c3         1 Q9C      -0.021400
     12 C07          7.4660     0.0010     4.3650 c3         1 Q9C      -0.039400
     13 C08         11.5500     0.0010     7.0860 c3         1 Q9C      -0.065100
     14 HN          -0.3340    -0.0480    -0.9420 hn         1 Q9C       0.224133
     15 HNA         -0.3340    -0.7920     0.5120 hn         1 Q9C       0.224133
     16 HN01         3.6520     0.8110     3.3040 hn         1 Q9C       0.258800
     17 HN02         9.9260    -0.0010     5.0080 hn         1 Q9C       0.173500
     18 H01          3.8700    -0.8850     0.9330 h1         1 Q9C       0.017700
     19 H01A         3.8700     0.8840     0.9320 h1         1 Q9C       0.017700
     20 H02          1.8300    -0.8850    -0.5110 hx         1 Q9C       0.085700
     21 H02A         1.8300     0.8850    -0.5110 hx         1 Q9C       0.085700
     22 H03          5.8400    -0.8850     2.3680 h1         1 Q9C       0.012700
     23 H03A         5.8420     0.8840     2.3660 h1         1 Q9C       0.012700
     24 H04          7.5620    -0.8820     6.3220 h1         1 Q9C       0.027700
     25 H04A         7.5640     0.8870     6.3210 h1         1 Q9C       0.027700
     26 H05          1.6170     0.8840     1.9530 hc         1 Q9C       0.039200
     27 H05A         1.6170    -0.8850     1.9530 hc         1 Q9C       0.039200
     28 H06          5.5620     0.8860     4.8240 hc         1 Q9C       0.026700
     29 H06A         5.5620    -0.8830     4.8250 hc         1 Q9C       0.026700
     30 H07          7.8410    -0.8840     3.8650 hc         1 Q9C       0.018200
     31 H07A         7.8400     0.8850     3.8630 hc         1 Q9C       0.018200
     32 H08         11.9240    -0.8850     6.5860 hc         1 Q9C       0.024700
     33 H08A        11.8840     0.0030     8.1160 hc         1 Q9C       0.024700
     34 H08B        11.9250     0.8850     6.5830 hc         1 Q9C       0.024700
     35 HN3         -0.3340     0.8460     0.4180 hn         1 Q9C       0.224133
@<TRIPOS>BOND
     1     1     7 1   
     2     1    14 1   
     3     1    15 1   
     4     1    35 1   
     5     2     3 2   
     6     2     5 1   
     7     2    13 1   
     8     4     6 1   
     9     4     8 1   
    10     4    16 1   
    11     5     9 1   
    12     5    17 1   
    13     6    10 1   
    14     6    18 1   
    15     6    19 1   
    16     7    10 1   
    17     7    20 1   
    18     7    21 1   
    19     8    11 1   
    20     8    22 1   
    21     8    23 1   
    22     9    12 1   
    23     9    24 1   
    24     9    25 1   
    25    10    26 1   
    26    10    27 1   
    27    11    12 1   
    28    11    28 1   
    29    11    29 1   
    30    12    30 1   
    31    12    31 1   
    32    13    32 1   
    33    13    33 1   
    34    13    34 1   
@<TRIPOS>SUBSTRUCTURE
     1 Q9C         1 TEMP              0 ****  ****    0 ROOT
