@<TRIPOS>MOLECULE
molecule
   39    42     1     0     0
SMALL
bcc


@<TRIPOS>ATOM
      1 N01          0.0000     0.0000     0.0000 nb         1 Q9G      -0.719000
      2 C02          1.3270     0.0000     0.0000 ca         1 Q9G       0.498800
      3 C03          2.0250     0.0000     1.2220 ca         1 Q9G      -0.390200
      4 C04          1.3140    -0.0000     2.4330 ca         1 Q9G       0.036700
      5 C05         -0.0450     0.0060     2.3810 ca         1 Q9G      -0.235600
      6 C06         -0.6840     0.0030     1.1300 cp         1 Q9G       0.536800
      7 C07         -2.1660     0.0030     1.0760 cp         1 Q9G      -0.121500
      8 C08          2.0840    -0.0150     3.7240 c3         1 Q9G      -0.044100
      9 C09          1.1930     0.4160     4.8870 c3         1 Q9G      -0.080400
     10 C10         -0.0970    -0.4120     4.8400 c3         1 Q9G      -0.081400
     11 C11         -0.9040     0.0240     3.6170 c3         1 Q9G      -0.023100
     12 N12          2.2690     0.0010    -0.9930 na         1 Q9G      -0.144800
     13 N13          3.5440     0.0000    -0.4180 nc         1 Q9G      -0.567100
     14 C14          3.4500     0.0000     0.8850 cd         1 Q9G       0.625800
     15 N15          4.5120     0.0000     1.7920 nv         1 Q9G      -0.975800
     16 C16         -2.8890     1.0140     1.7060 ca         1 Q9G      -0.147000
     17 C17         -4.2690     1.0090     1.6530 ca         1 Q9G       0.120900
     18 F18         -4.9720     1.9890     2.2620 f          1 Q9G      -0.141900
     19 C19         -4.9340     0.0010     0.9720 ca         1 Q9G      -0.155000
     20 C20         -4.2200    -1.0040     0.3460 ca         1 Q9G      -0.110000
     21 C21         -2.8410    -1.0050     0.3900 ca         1 Q9G      -0.059300
     22 C22         -2.0650    -2.0990    -0.2990 c3         1 Q9G      -0.047800
     23 H12          2.0760     0.0010    -1.9750 hn         1 Q9G       0.340700
     24 H081         2.4490    -1.0190     3.9090 hc         1 Q9G       0.056200
     25 H082         2.9220     0.6660     3.6460 hc         1 Q9G       0.056200
     26 H111        -1.7370    -0.6550     3.4810 hc         1 Q9G       0.055200
     27 H112        -1.2770     1.0280     3.7770 hc         1 Q9G       0.055200
     28 H16         -2.3690     1.8560     2.1470 ha         1 Q9G       0.151000
     29 H091         0.9540     1.4680     4.7920 hc         1 Q9G       0.047200
     30 H092         1.7060     0.2360     5.8240 hc         1 Q9G       0.047200
     31 H101         0.1480    -1.4640     4.7580 hc         1 Q9G       0.047200
     32 H102        -0.6750    -0.2350     5.7390 hc         1 Q9G       0.047200
     33 H151         5.4030     0.3660     1.5180 hn         1 Q9G       0.443300
     34 H152         4.3790    -0.3520     2.7190 hn         1 Q9G       0.443300
     35 H19         -6.0170    -0.0010     0.9330 ha         1 Q9G       0.145000
     36 H20         -4.7450    -1.7890    -0.1860 ha         1 Q9G       0.140000
     37 H221        -1.3360    -2.5120     0.3870 hc         1 Q9G       0.050033
     38 H222        -1.5560    -1.6910    -1.1650 hc         1 Q9G       0.050033
     39 H223        -2.7460    -2.8800    -0.6160 hc         1 Q9G       0.050033
@<TRIPOS>BOND
     1     1     2 ar
     2     1     6 ar
     3     2     3 ar
     4     2    12 1
     5     3     4 ar
     6     3    14 1
     7     4     5 ar
     8     4     8 1
     9     5     6 ar
    10     5    11 1
    11     6     7 1
    12     7    16 ar
    13     7    21 ar
    14     8     9 1
    15     9    10 1
    16    10    11 1
    17    12    13 1
    18    13    14 2
    19    14    15 1
    20    16    17 ar
    21    17    18 1
    22    17    19 ar
    23    19    20 ar
    24    20    21 ar
    25    21    22 1
    26    12    23 1
    27     8    24 1
    28     8    25 1
    29    11    26 1
    30    11    27 1
    31    16    28 1
    32     9    29 1
    33     9    30 1
    34    10    31 1
    35    10    32 1
    36    15    33 1
    37    15    34 1
    38    19    35 1
    39    20    36 1
    40    22    37 1
    41    22    38 1
    42    22    39 1
@<TRIPOS>SUBSTRUCTURE
     1 Q9G         1 TEMP              0 ****  ****    0 ROOT
