@<TRIPOS>MOLECULE
Q9G
   39    42     1     0     0
SMALL
bcc


@<TRIPOS>ATOM
      1 N01          0.0000     0.0000     0.0000 nb         1 Q9G      -0.588000
      2 C02          1.3270     0.0000     0.0000 ca         1 Q9G       0.285800
      3 C03          2.0250     0.0000     1.2220 ca         1 Q9G      -0.402200
      4 C04          1.3140    -0.0000     2.4330 ca         1 Q9G       0.041700
      5 C05         -0.0450     0.0060     2.3810 ca         1 Q9G      -0.238600
      6 C06         -0.6840     0.0030     1.1300 cp         1 Q9G       0.485800
      7 C07         -2.1660     0.0030     1.0760 cp         1 Q9G      -0.123500
      8 C08          2.0840    -0.0150     3.7240 c3         1 Q9G       0.019900
      9 C09          1.1930     0.4160     4.8870 c3         1 Q9G      -0.024400
     10 C10         -0.0970    -0.4120     4.8400 c3         1 Q9G      -0.026400
     11 C11         -0.9040     0.0240     3.6170 c3         1 Q9G       0.037900
     12 N12          2.2690     0.0010    -0.9930 na         1 Q9G       0.330200
     13 N13          3.5440     0.0000    -0.4180 nc         1 Q9G      -0.716100
     14 C14          3.4500     0.0000     0.8850 cd         1 Q9G       0.507800
     15 N15          4.5120     0.0000     1.7920 nv         1 Q9G      -0.496800
     16 C16         -2.8890     1.0140     1.7060 ca         1 Q9G      -0.120000
     17 C17         -4.2690     1.0090     1.6530 ca         1 Q9G       0.091900
     18 F18         -4.9720     1.9890     2.2620 f          1 Q9G      -0.129900
     19 C19         -4.9340     0.0010     0.9720 ca         1 Q9G      -0.124000
     20 C20         -4.2200    -1.0040     0.3460 ca         1 Q9G      -0.082000
     21 C21         -2.8410    -1.0050     0.3900 ca         1 Q9G      -0.065300
     22 C22         -2.0650    -2.0990    -0.2990 c3         1 Q9G       0.054200
     23 H12          2.0760     0.0010    -1.9750 hn         1 Q9G       0.154700
     24 H081         2.4490    -1.0190     3.9090 hc         1 Q9G       0.024700
     25 H082         2.9220     0.6660     3.6460 hc         1 Q9G       0.024700
     26 H111        -1.7370    -0.6550     3.4810 hc         1 Q9G       0.027700
     27 H112        -1.2770     1.0280     3.7770 hc         1 Q9G       0.027700
     28 H16         -2.3690     1.8560     2.1470 ha         1 Q9G       0.127000
     29 H091         0.9540     1.4680     4.7920 hc         1 Q9G       0.017700
     30 H092         1.7060     0.2360     5.8240 hc         1 Q9G       0.017700
     31 H101         0.1480    -1.4640     4.7580 hc         1 Q9G       0.017700
     32 H102        -0.6750    -0.2350     5.7390 hc         1 Q9G       0.017700
     33 H151         5.4030     0.3660     1.5180 hn         1 Q9G       0.274800
     34 H152         4.3790    -0.3520     2.7190 hn         1 Q9G       0.274800
     35 H19         -6.0170    -0.0010     0.9330 ha         1 Q9G       0.117000
     36 H20         -4.7450    -1.7890    -0.1860 ha         1 Q9G       0.111000
     37 H221        -1.3360    -2.5120     0.3870 hc         1 Q9G       0.014700
     38 H222        -1.5560    -1.6910    -1.1650 hc         1 Q9G       0.014700
     39 H223        -2.7460    -2.8800    -0.6160 hc         1 Q9G       0.014700
@<TRIPOS>BOND
     1     1     2 ar  
     2     1     6 ar  
     3     2     3 ar  
     4     2    12 1   
     5     3     4 ar  
     6     3    14 1   
     7     4     5 ar  
     8     4     8 1   
     9     5     6 ar  
    10     5    11 1   
    11     6     7 1   
    12     7    16 ar  
    13     7    21 ar  
    14     8     9 1   
    15     8    24 1   
    16     8    25 1   
    17     9    10 1   
    18     9    29 1   
    19     9    30 1   
    20    10    11 1   
    21    10    31 1   
    22    10    32 1   
    23    11    26 1   
    24    11    27 1   
    25    12    13 1   
    26    12    23 1   
    27    13    14 2   
    28    14    15 1   
    29    15    33 1   
    30    15    34 1   
    31    16    17 ar  
    32    16    28 1   
    33    17    18 1   
    34    17    19 ar  
    35    19    20 ar  
    36    19    35 1   
    37    20    21 ar  
    38    20    36 1   
    39    21    22 1   
    40    22    37 1   
    41    22    38 1   
    42    22    39 1   
@<TRIPOS>SUBSTRUCTURE
     1 Q9G         1 TEMP              0 ****  ****    0 ROOT
