@<TRIPOS>MOLECULE
molecule
   27    29     1     0     0
SMALL
bcc


@<TRIPOS>ATOM
      1 N3           0.0000     0.0000     0.0000 nc         1 Q9P      -0.666000
      2 C4           1.3380     0.0000     0.0000 cd         1 Q9P       0.472500
      3 C6          -0.0090     0.0010     2.3540 cd         1 Q9P      -0.266600
      4 C7           1.3580     0.0010     2.3680 cc         1 Q9P       0.255800
      5 C10          3.4590    -0.0020    -0.4670 cc         1 Q9P       0.595200
      6 C13         -1.1490     1.4160     4.0140 ca         1 Q9P      -0.094300
      7 C15         -2.6730     3.2590     3.9060 ca         1 Q9P      -0.126000
      8 C17         -0.6230     3.4710     5.1230 ca         1 Q9P      -0.126000
      9 O11          2.0340     0.0000     3.5380 oh         1 Q9P      -0.478100
     10 N8           2.0280     0.0000     1.1790 na         1 Q9P      -0.022800
     11 N9           3.3880    -0.0010     0.8420 nd         1 Q9P      -0.609100
     12 N5           2.2360    -0.0010    -0.9800 nc         1 Q9P      -0.432300
     13 C2          -0.6780     0.0000     1.1290 cd         1 Q9P       0.592300
     14 Cl1         -2.4140     0.0020     1.0930 cl         1 Q9P      -0.114000
     15 C12         -0.7850     0.0010     3.6460 c3         1 Q9P       0.031200
     16 C18         -0.2910     2.1710     4.7910 ca         1 Q9P      -0.118000
     17 C16         -1.8180     4.0120     4.6880 ca         1 Q9P      -0.123000
     18 C14         -2.3390     1.9610     3.5690 ca         1 Q9P      -0.118000
     19 H2           4.3770    -0.0020    -1.0420 h5         1 Q9P       0.096800
     20 H3          -3.6080     3.6840     3.5610 ha         1 Q9P       0.132000
     21 H4           0.0490     4.0620     5.7340 ha         1 Q9P       0.132000
     22 H5          -1.6880    -0.5850     3.5260 hc         1 Q9P       0.067200
     23 H6          -0.1770    -0.4310     4.4320 hc         1 Q9P       0.067200
     24 H7           0.6460     1.7470     5.1320 ha         1 Q9P       0.136000
     25 H8          -2.0790     5.0310     4.9490 ha         1 Q9P       0.131000
     26 H9          -3.0090     1.3700     2.9570 ha         1 Q9P       0.136000
     27 H1           2.4760    -0.8260     3.6460 ho         1 Q9P       0.449000
@<TRIPOS>BOND
     1     8    17 ar
     2     8    16 ar
     3    17     7 ar
     4    16     6 ar
     5     5    11 2
     6     5    12 1
     7    11    10 1
     8    12     2 2
     9     7    18 ar
    10    10     2 1
    11    10     4 1
    12     9     4 1
    13     2     1 1
    14     4     3 2
    15     6    18 ar
    16     6    15 1
    17     1    13 2
    18     3    13 1
    19     3    15 1
    20    13    14 1
    21     5    19 1
    22     7    20 1
    23     8    21 1
    24    15    22 1
    25    15    23 1
    26    16    24 1
    27    17    25 1
    28    18    26 1
    29     9    27 1
@<TRIPOS>SUBSTRUCTURE
     1 Q9P         1 TEMP              0 ****  ****    0 ROOT
