@<TRIPOS>MOLECULE
Q9Y
   31    31     1     0     0
SMALL
bcc


@<TRIPOS>ATOM
      1 C15          0.0000     0.0000     0.0000 c3         1 Q9Y       0.086300
      2 C01          5.0180    -5.1590     0.7710 c3         1 Q9Y       0.002900
      3 C02          3.9180    -4.5630     1.6510 c3         1 Q9Y      -0.049700
      4 C03          3.8310    -5.3480     2.9610 c3         1 Q9Y       0.002900
      5 C04          4.2420    -3.0990     1.9530 c3         1 Q9Y      -0.046400
      6 C05          4.2060    -2.2900     0.6550 c3         1 Q9Y      -0.043700
      7 C09          4.3570     1.2550     1.3980 cc         1 Q9Y       0.566600
      8 C11          3.6020     0.1140     1.1690 cd         1 Q9Y      -0.535200
      9 C12          2.1390     0.0000     1.1670 c          1 Q9Y       0.640700
     10 N06          4.5170    -0.8880     0.9440 na         1 Q9Y       0.621400
     11 N07          5.6940    -0.3780     1.0340 nd         1 Q9Y      -0.337800
     12 N08          5.6350     0.8790     1.2940 nc         1 Q9Y      -0.395000
     13 N14          1.4650     0.0000     0.0000 ns         1 Q9Y      -0.188900
     14 O13          1.5350    -0.0950     2.2190 o          1 Q9Y      -0.621100
     15 H1          -0.3610    -0.8900     0.5010 h1         1 Q9Y       0.011700
     16 H2          -0.3610     0.0110    -1.0210 h1         1 Q9Y       0.011700
     17 H3          -0.3610     0.8790     0.5200 h1         1 Q9Y       0.011700
     18 H4           4.8470    -4.8780    -0.2610 hc         1 Q9Y       0.006867
     19 H5           5.0060    -6.2380     0.8590 hc         1 Q9Y       0.006867
     20 H6           5.9810    -4.7810     1.0930 hc         1 Q9Y       0.006867
     21 H7           2.9690    -4.6230     1.1310 hc         1 Q9Y       0.024700
     22 H8           3.5580    -6.3750     2.7500 hc         1 Q9Y       0.006867
     23 H9           3.0810    -4.9000     3.6010 hc         1 Q9Y       0.006867
     24 H10          4.7920    -5.3250     3.4600 hc         1 Q9Y       0.006867
     25 H11          3.5100    -2.7030     2.6460 hc         1 Q9Y       0.038700
     26 H12          5.2300    -3.0320     2.3930 hc         1 Q9Y       0.038700
     27 H13          3.2190    -2.3570     0.2150 h1         1 Q9Y       0.046200
     28 H14          4.9380    -2.6860    -0.0380 h1         1 Q9Y       0.046200
     29 H16          1.9650     0.0310    -0.8660 hn         1 Q9Y       0.170500
     30 H15          4.6080     3.0550     1.9310 ho         1 Q9Y       0.419000
     31 O10          3.8910     2.5020     1.6670 oh         1 Q9Y      -0.561300
@<TRIPOS>BOND
     1     1    13 1   
     2     1    15 1   
     3     1    16 1   
     4     1    17 1   
     5     2     3 1   
     6     2    18 1   
     7     2    19 1   
     8     2    20 1   
     9     3     4 1   
    10     3     5 1   
    11     3    21 1   
    12     4    22 1   
    13     4    23 1   
    14     4    24 1   
    15     5     6 1   
    16     5    25 1   
    17     5    26 1   
    18     6    10 1   
    19     6    27 1   
    20     6    28 1   
    21     7     8 2   
    22     7    12 1   
    23     7    31 1   
    24     8     9 1   
    25     8    10 1   
    26     9    13 1   
    27     9    14 2   
    28    10    11 1   
    29    11    12 2   
    30    13    29 1   
    31    30    31 1   
@<TRIPOS>SUBSTRUCTURE
     1 Q9Y         1 TEMP              0 ****  ****    0 ROOT
