@<TRIPOS>MOLECULE
molecule
   31    31     1     0     0
SMALL
bcc


@<TRIPOS>ATOM
      1 C15          0.0000     0.0000     0.0000 c3         1 Q9Y       0.103300
      2 C01          5.0180    -5.1590     0.7710 c3         1 Q9Y      -0.090600
      3 C02          3.9180    -4.5630     1.6510 c3         1 Q9Y      -0.076700
      4 C03          3.8310    -5.3480     2.9610 c3         1 Q9Y      -0.090600
      5 C04          4.2420    -3.0990     1.9530 c3         1 Q9Y      -0.100400
      6 C05          4.2060    -2.2900     0.6550 c3         1 Q9Y       0.057300
      7 C09          4.3570     1.2550     1.3980 cc         1 Q9Y       0.550600
      8 C11          3.6020     0.1140     1.1690 cd         1 Q9Y      -0.337200
      9 C12          2.1390     0.0000     1.1670 c          1 Q9Y       0.709700
     10 N06          4.5170    -0.8880     0.9440 na         1 Q9Y       0.148400
     11 N07          5.6940    -0.3780     1.0340 nc         1 Q9Y      -0.166800
     12 N08          5.6350     0.8790     1.2940 nd         1 Q9Y      -0.429000
     13 N14          1.4650     0.0000     0.0000 ns         1 Q9Y      -0.581900
     14 O13          1.5350    -0.0950     2.2190 o          1 Q9Y      -0.577100
     15 H1          -0.3610    -0.8900     0.5010 h1         1 Q9Y       0.044700
     16 H2          -0.3610     0.0110    -1.0210 h1         1 Q9Y       0.044700
     17 H3          -0.3610     0.8790     0.5200 h1         1 Q9Y       0.044700
     18 H4           4.8470    -4.8780    -0.2610 hc         1 Q9Y       0.038367
     19 H5           5.0060    -6.2380     0.8590 hc         1 Q9Y       0.038367
     20 H6           5.9810    -4.7810     1.0930 hc         1 Q9Y       0.038367
     21 H7           2.9690    -4.6230     1.1310 hc         1 Q9Y       0.049700
     22 H8           3.5580    -6.3750     2.7500 hc         1 Q9Y       0.038367
     23 H9           3.0810    -4.9000     3.6010 hc         1 Q9Y       0.038367
     24 H10          4.7920    -5.3250     3.4600 hc         1 Q9Y       0.038367
     25 H11          3.5100    -2.7030     2.6460 hc         1 Q9Y       0.067700
     26 H12          5.2300    -3.0320     2.3930 hc         1 Q9Y       0.067700
     27 H13          3.2190    -2.3570     0.2150 h1         1 Q9Y       0.075200
     28 H14          4.9380    -2.6860    -0.0380 h1         1 Q9Y       0.075200
     29 H16          1.9650     0.0310    -0.8660 hn         1 Q9Y       0.317500
     30 H15          4.6080     3.0550     1.9310 ho         1 Q9Y       0.442000
     31 O10          3.8910     2.5020     1.6670 oh         1 Q9Y      -0.578300
@<TRIPOS>BOND
     1     2     3 1
     2     3     4 1
     3     3     5 1
     4     5     6 1
     5     6    10 1
     6     1    13 1
     7    10    11 1
     8    10     8 1
     9    13     9 1
    10    14     9 2
    11     9     8 1
    12    11    12 2
    13     8     7 2
    14    12     7 1
    15     7    31 1
    16     1    15 1
    17     1    16 1
    18     1    17 1
    19     2    18 1
    20     2    19 1
    21     2    20 1
    22     3    21 1
    23     4    22 1
    24     4    23 1
    25     4    24 1
    26     5    25 1
    27     5    26 1
    28     6    27 1
    29     6    28 1
    30    13    29 1
    31    31    30 1
@<TRIPOS>SUBSTRUCTURE
     1 Q9Y         1 TEMP              0 ****  ****    0 ROOT
