@<TRIPOS>MOLECULE
molecule
   24    24     1     0     0
SMALL
bcc


@<TRIPOS>ATOM
      1 C01          0.0000     0.0000     0.0000 c3         1 Q9Z      -0.090100
      2 C02          1.5300     0.0000     0.0000 c3         1 Q9Z      -0.076700
      3 C03          2.0400     0.0000     1.4420 c3         1 Q9Z      -0.090100
      4 C04          2.0400    -1.2480    -0.7220 c3         1 Q9Z      -0.103400
      5 C05          1.6360    -1.1870    -2.1960 c3         1 Q9Z       0.258800
      6 C07          1.4070    -3.6620    -3.0480 c3         1 Q9Z       0.002800
      7 C08          2.4050    -4.4960    -3.8340 c          1 Q9Z       0.667500
      8 N06          2.1240    -2.3820    -2.8870 nh         1 Q9Z      -0.493700
      9 N10          3.4570    -3.6720    -4.0060 ne         1 Q9Z      -0.386400
     10 N11          3.2610    -2.5210    -3.4700 n2         1 Q9Z       0.066300
     11 H1          -0.3610     0.6440     0.7930 hc         1 Q9Z       0.037867
     12 H2          -0.3610     0.3650    -0.9540 hc         1 Q9Z       0.037867
     13 H3          -0.3610    -1.0080     0.1610 hc         1 Q9Z       0.037867
     14 H4           1.8910     0.8850    -0.5100 hc         1 Q9Z       0.053700
     15 H5           1.6450    -0.8620     1.9650 hc         1 Q9Z       0.037867
     16 H6           3.1230    -0.0430     1.4420 hc         1 Q9Z       0.037867
     17 H7           1.7150     0.9050     1.9400 hc         1 Q9Z       0.037867
     18 H8           1.6090    -2.1310    -0.2660 hc         1 Q9Z       0.057700
     19 H9           3.1200    -1.2940    -0.6460 hc         1 Q9Z       0.057700
     20 H10          2.0680    -0.3040    -2.6530 h1         1 Q9Z       0.071700
     21 H11          0.5560    -1.1420    -2.2730 h1         1 Q9Z       0.071700
     22 H12          0.4940    -3.5220    -3.6150 h1         1 Q9Z       0.098700
     23 H13          1.2050    -4.1130    -2.0830 h1         1 Q9Z       0.098700
     24 O09          2.2840    -5.6410    -4.2170 o          1 Q9Z      -0.492100
@<TRIPOS>BOND
     1     1     2 1
     2     3     2 1
     3     2     4 1
     4     9    10 2
     5     9     7 1
     6    10     8 1
     7    24     7 2
     8     7     6 1
     9     4     5 1
    10     8     5 1
    11     8     6 1
    12     1    11 1
    13     1    12 1
    14     1    13 1
    15     2    14 1
    16     3    15 1
    17     3    16 1
    18     3    17 1
    19     4    18 1
    20     4    19 1
    21     5    20 1
    22     5    21 1
    23     6    22 1
    24     6    23 1
@<TRIPOS>SUBSTRUCTURE
     1 Q9Z         1 TEMP              0 ****  ****    0 ROOT
