@<TRIPOS>MOLECULE
molecule
   23    24     1     0     0
SMALL
bcc


@<TRIPOS>ATOM
      1 C1           0.0000     0.0000     0.0000 cc         1 QAB      -0.105600
      2 O1          -1.1380    -1.0520    -1.7310 o          1 QAB      -0.837300
      3 S1           0.6840     0.0010     2.4390 ss         1 QAB      -0.300800
      4 C2          -0.8030     0.0010    -1.2220 c          1 QAB       0.904200
      5 N3          -1.8960     0.0090     1.5290 nv         1 QAB      -0.912200
      6 C5           1.4530     0.0000     0.0000 cc         1 QAB      -0.063300
      7 C6           1.9630     0.0000     1.2360 cd         1 QAB      -0.055400
      8 C7          -0.5410     0.0060     1.2570 cd         1 QAB       0.195500
      9 C10          2.3060    -0.0020    -1.2590 c3         1 QAB      -0.009100
     10 C11          3.7290     0.4230    -0.8920 c3         1 QAB      -0.085400
     11 C12          4.2150    -0.4180     0.2930 c3         1 QAB      -0.080400
     12 C13          3.4470    -0.0030     1.5490 c3         1 QAB       0.005900
     13 OXT         -1.1730     1.1700    -1.7850 o          1 QAB      -0.837300
     14 HN3         -2.3840    -0.8560     1.6480 hn         1 QAB       0.420800
     15 HN3A        -2.3800     0.8770     1.6490 hn         1 QAB       0.420800
     16 H10          2.3240    -0.9990    -1.6830 hc         1 QAB       0.065200
     17 H10A         1.8930     0.6960    -1.9770 hc         1 QAB       0.065200
     18 H11          3.7330     1.4710    -0.6170 hc         1 QAB       0.032700
     19 H11A         4.3840     0.2630    -1.7400 hc         1 QAB       0.032700
     20 H12          5.2650    -0.2040     0.4520 hc         1 QAB       0.036700
     21 H12A         3.9890    -1.4570     0.0860 hc         1 QAB       0.036700
     22 H13          3.6470    -0.7100     2.3460 hc         1 QAB       0.034700
     23 H13A         3.7560     0.9900     1.8510 hc         1 QAB       0.034700
@<TRIPOS>BOND
     1     6     1 1
     2     8     1 2
     3     1     4 1
     4     2     4 1
     5     7     3 1
     6     3     8 1
     7     4    13 1
     8     8     5 1
     9     5    14 1
    10     5    15 1
    11     7     6 2
    12     9     6 1
    13    12     7 1
    14    10     9 1
    15     9    16 1
    16     9    17 1
    17    11    10 1
    18    10    18 1
    19    10    19 1
    20    11    12 1
    21    11    20 1
    22    11    21 1
    23    12    22 1
    24    12    23 1
@<TRIPOS>SUBSTRUCTURE
     1 QAB         1 TEMP              0 ****  ****    0 ROOT
