@<TRIPOS>MOLECULE
molecule
   38    38     1     0     0
SMALL
bcc


@<TRIPOS>ATOM
      1 C01          0.0000     0.0000     0.0000 c3         1 QAF      -0.145100
      2 C02          1.5300     0.0000     0.0000 c3         1 QAF      -0.095400
      3 C03          2.0390     0.0000     1.4440 c3         1 QAF      -0.057400
      4 C04          3.5700     0.0000     1.4450 c3         1 QAF       0.019700
      5 C05          4.0590     0.0010     2.8320 c1         1 QAF      -0.316100
      6 C06          4.4610    -0.0150     3.9350 cg         1 QAF       0.045000
      7 C07          4.8500     0.1410     5.3820 ca         1 QAF      -0.286000
      8 C08          6.0600     0.3900     5.9220 ca         1 QAF      -0.012000
      9 C09          6.5820     0.5470     6.9860 ca         1 QAF      -0.264000
     10 C10          5.5760     0.4320     8.0880 ca         1 QAF      -0.162300
     11 N11          4.3530     0.1840     7.6070 na         1 QAF       0.248900
     12 C12          3.3010    -0.0520     8.6300 c3         1 QAF      -0.083700
     13 C13          1.9330     0.7630     8.3120 c3         1 QAF      -0.377100
     14 P14          2.4210     2.3460     8.7490 p5         1 QAF       1.042700
     15 O15          3.8860     2.4380     8.0520 o          1 QAF      -0.782000
     16 O16          1.6230     3.0920     7.7540 o          1 QAF      -0.782000
     17 O17          2.6020     2.8830    10.1650 o          1 QAF      -0.782000
     18 P18          0.6980     0.2920     9.9340 p5         1 QAF       1.042700
     19 O19         -0.6700    -0.1140     9.3850 o          1 QAF      -0.782000
     20 O20          1.1650    -0.8370    10.9570 o          1 QAF      -0.782000
     21 O21          0.7320     1.7250    10.7490 o          1 QAF      -0.782000
     22 C22          3.9410     0.0520     6.6380 ca         1 QAF       0.019700
     23 H01         -0.5360     0.8040    -0.4890 hc         1 QAF       0.047700
     24 H01A        -0.0090    -1.0140    -0.3810 hc         1 QAF       0.047700
     25 H01B        -0.0990    -0.3820     1.0090 hc         1 QAF       0.047700
     26 H02          1.7930     0.8580    -0.6070 hc         1 QAF       0.010700
     27 H02A         1.8190    -0.8120    -0.6560 hc         1 QAF       0.010700
     28 H03          1.4410     0.7190     1.9900 hc         1 QAF       0.076200
     29 H03A         2.1200    -1.0200     1.7980 hc         1 QAF       0.076200
     30 H04          3.7800    -0.7110     0.6550 hc         1 QAF       0.020700
     31 H04A         4.2590     0.8030     1.2130 hc         1 QAF       0.020700
     32 H08          6.5910     0.6410     5.0110 ha         1 QAF       0.049000
     33 H09          7.4980     0.7340     7.5340 ha         1 QAF       0.126000
     34 H10          5.8740     0.2630     9.1160 h4         1 QAF       0.157000
     35 H12          3.0130    -1.0960     8.6730 h1         1 QAF       0.054700
     36 H12A         3.6990     0.0210     9.6350 h1         1 QAF       0.054700
     37 H13          1.4870     0.4270     7.3830 hc         1 QAF       0.078700
     38 H22          2.8860    -0.0980     6.4390 h4         1 QAF       0.194000
@<TRIPOS>BOND
     1     1     2 1
     2     2     3 1
     3     3     4 1
     4     4     5 1
     5     5     6 3
     6     6     7 1
     7     7     8 ar
     8     7    22 ar
     9     8     9 ar
    10     9    10 ar
    11    10    11 2
    12    11    12 1
    13    11    22 1
    14    12    13 1
    15    13    14 1
    16    13    18 1
    17    14    15 1
    18    14    16 1
    19    14    17 1
    20    18    19 1
    21    18    20 1
    22    18    21 1
    23     1    23 1
    24     1    24 1
    25     1    25 1
    26     2    26 1
    27     2    27 1
    28     3    28 1
    29     3    29 1
    30     4    30 1
    31     4    31 1
    32     8    32 1
    33     9    33 1
    34    10    34 1
    35    12    35 1
    36    12    36 1
    37    13    37 1
    38    22    38 1
@<TRIPOS>SUBSTRUCTURE
     1 QAF         1 TEMP              0 ****  ****    0 ROOT
