@<TRIPOS>MOLECULE
QAF
   38    36     1     0     0
SMALL
bcc


@<TRIPOS>ATOM
      1 C01      -127.9380  -28.5200   13.9930 c3        1 QAF     -0.122100
      2 C02      -126.7720  -28.2230   14.9010 c3        1 QAF     -0.038400
      3 C03      -127.2380  -28.1170   16.3360 c3        1 QAF     -0.133400
      4 C04      -126.0540  -27.9790   17.2780 c3        1 QAF      0.018700
      5 C05      -126.4800  -27.9360   18.6440 c1        1 QAF     -0.059100
      6 C06      -126.8900  -27.9480   19.7710 cg        1 QAF     -0.152000
      7 C07      -127.4670  -28.0400   21.0440 ca        1 QAF     -0.060300
      8 C08      -126.9350  -27.3750   22.1520 ca        1 QAF     -0.121000
      9 C09      -127.5670  -27.5120   23.3940 ca        1 QAF     -0.299300
     10 C10      -128.7100  -28.3160   23.4680 ca        1 QAF      0.364200
     11 N11      -129.2430  -28.9690   22.4100 nb        1 QAF     -0.686000
     12 C12      -129.5920  -33.5720   17.9940 c2        1 QAF     -0.254000
     13 C13      -128.8870  -32.4690   17.8310 c2        1 QAF     -0.267600
     14 P14      -129.6860  -30.9820   17.3850 p5        1 QAF      1.256100
     15 O15      -128.9880  -30.5790   16.0970 o         1 QAF     -0.959167
     16 O16      -131.1510  -31.3090   17.2360 o         1 QAF     -0.959167
     17 O17      -129.3500  -30.0400   18.5300 o         1 QAF     -0.959167
     18 P18      1129.3060  237.4500 -111.6970 p4        1 QAF      1.451300
     19 O19      1129.1190  238.7810 -111.0940 o         1 QAF     -0.800500
     20 O20      1129.2090  237.2830 -113.1580 o         1 QAF     -0.800500
     21 O21      1129.5900  236.2850 -110.8400 o         1 QAF     -0.849300
     22 C22      -128.6430  -28.8420   21.2170 ca        1 QAF      0.439200
     23 H01      -128.6200  -27.6390   13.9280 hc        1 QAF      0.046700
     24 H01A     -128.5180  -29.3920   14.4240 hc        1 QAF      0.046700
     25 H01B     -127.5840  -28.7660   12.9640 hc        1 QAF      0.046700
     26 H02      -126.2530  -27.2770   14.5840 hc        1 QAF     -0.012300
     27 H02A     -126.0190  -29.0510   14.8160 hc        1 QAF     -0.012300
     28 H03      -127.9170  -27.2350   16.4520 hc        1 QAF      0.119700
     29 H03A     -127.8670  -29.0500   16.6030 hc        1 QAF      0.119700
     30 H04      -125.4610  -27.0530   17.0330 hc        1 QAF      0.019200
     31 H04A     -125.3670  -28.8610   17.1380 hc        1 QAF      0.019200
     32 H08      -126.0360  -26.7530   22.0530 ha        1 QAF      0.110000
     33 H09      -127.1770  -27.0040   24.2820 ha        1 QAF      0.102000
     34 H10      -129.2390  -28.4520   24.4260 h4        1 QAF     -0.017900
     35 H12      -130.6830  -33.5390   17.8470 ha        1 QAF      0.065000
     36 H12A     -129.1800  -34.5540   18.2740 ha        1 QAF      0.065000
     37 H13      -127.8020  -32.4260   17.9610 ha        1 QAF      0.081000
     38 H22      -129.0830  -29.3890   20.3110 h4        1 QAF      0.192100
@<TRIPOS>BOND
     1    1    2 1   
     2    1   23 1   
     3    1   24 1   
     4    1   25 1   
     5    2    3 1   
     6    2   26 1   
     7    2   27 1   
     8    3    4 1   
     9    3   28 1   
    10    3   29 1   
    11    4    5 1   
    12    4   30 1   
    13    4   31 1   
    14    5    6 3   
    15    6    7 1   
    16    7    8 ar  
    17    7   22 ar  
    18    8    9 ar  
    19    8   32 1   
    20    9   10 ar  
    21    9   33 1   
    22   10   11 ar  
    23   10   34 1   
    24   11   22 ar  
    25   12   13 2   
    26   12   35 1   
    27   12   36 1   
    28   13   14 1   
    29   13   37 1   
    30   14   15 1   
    31   14   16 1   
    32   14   17 1   
    33   18   19 1   
    34   18   20 1   
    35   18   21 2   
    36   22   38 1   
@<TRIPOS>SUBSTRUCTURE
     1 QAF         1 TEMP              0 ****  ****    0 ROOT
