@<TRIPOS>MOLECULE
QAP
   37    38     1     0     0
SMALL
bcc


@<TRIPOS>ATOM
      1 C1         -0.2520   -0.6150    0.4480 c3        1 QAP     -0.041100
      2 O1         -2.3920    0.1880    1.0830 os        1 QAP     -0.436900
      3 C2          0.5900    0.5170   -0.0240 ca        1 QAP     -0.082300
      4 O2         -5.5400    6.7860    0.3210 oh        1 QAP     -0.495100
      5 C3         -1.7040   -0.4850    0.0130 c3        1 QAP      0.142400
      6 O3         -6.4160    5.8480   -2.1330 oh        1 QAP     -0.515100
      7 C4          1.0730    1.4700    0.8790 ca        1 QAP     -0.123000
      8 O4         -4.2020    0.1690   -0.2190 o         1 QAP     -0.549000
      9 C5          0.9190    0.6300   -1.3810 ca        1 QAP     -0.123000
     10 C6         -5.3740    3.1760    0.9020 ca        1 QAP     -0.089800
     11 C7          1.8740    2.5200    0.4320 ca        1 QAP     -0.128500
     12 C8          1.7200    1.6800   -1.8260 ca        1 QAP     -0.128500
     13 C9          2.1990    2.6260   -0.9200 ca        1 QAP     -0.129000
     14 C10        -5.2960    4.5630    1.1030 ca        1 QAP     -0.116000
     15 C11        -5.8170    2.6740   -0.3280 ca        1 QAP     -0.096000
     16 C12        -5.0270    2.3070    2.0160 ce        1 QAP     -0.024200
     17 C13        -5.6430    5.4380    0.0700 ca        1 QAP      0.103100
     18 C14        -3.7040    0.5120    0.8570 c         1 QAP      0.643300
     19 C15        -6.0850    4.9200   -1.1680 ca        1 QAP      0.055100
     20 C16        -6.1730    3.5400   -1.3600 ca        1 QAP     -0.175000
     21 C17        -4.3150    1.1750    2.0140 cf        1 QAP     -0.206200
     22 H1          0.1490   -1.5750    0.0250 hc        1 QAP      0.063700
     23 H1A        -0.2090   -0.6910    1.5680 hc        1 QAP      0.063700
     24 HO2        -5.7940    7.2600   -0.4860 ho        1 QAP      0.437000
     25 H3         -1.8130    0.1100   -0.9300 h1        1 QAP      0.056200
     26 H3A        -2.1800   -1.4920   -0.1260 h1        1 QAP      0.056200
     27 HO3        -6.6680    5.3660   -2.9330 ho        1 QAP      0.432000
     28 H4          0.8150    1.3920    1.9460 ha        1 QAP      0.132500
     29 H5          0.5410   -0.1150   -2.0970 ha        1 QAP      0.132500
     30 H7          2.2490    3.2650    1.1480 ha        1 QAP      0.131000
     31 H8          1.9730    1.7620   -2.8930 ha        1 QAP      0.131000
     32 H9          2.8310    3.4550   -1.2720 ha        1 QAP      0.131000
     33 H10        -4.9570    4.9780    2.0640 ha        1 QAP      0.153000
     34 H11        -5.8820    1.5840   -0.4870 ha        1 QAP      0.170000
     35 H12        -5.3970    2.6770    2.9940 ha        1 QAP      0.135000
     36 H16        -6.5190    3.1370   -2.3230 ha        1 QAP      0.140000
     37 H17        -4.1070    0.6500    2.9640 ha        1 QAP      0.154000
@<TRIPOS>BOND
     1    1    3 1   
     2    1    5 1   
     3    1   22 1   
     4    1   23 1   
     5    2    5 1   
     6    2   18 1   
     7    3    7 ar  
     8    3    9 ar  
     9    4   17 1   
    10    4   24 1   
    11    5   25 1   
    12    5   26 1   
    13    6   19 1   
    14    6   27 1   
    15    7   11 ar  
    16    7   28 1   
    17    8   18 2   
    18    9   12 ar  
    19    9   29 1   
    20   10   14 ar  
    21   10   15 ar  
    22   10   16 1   
    23   11   13 ar  
    24   11   30 1   
    25   12   13 ar  
    26   12   31 1   
    27   13   32 1   
    28   14   17 ar  
    29   14   33 1   
    30   15   20 ar  
    31   15   34 1   
    32   16   21 2   
    33   16   35 1   
    34   17   19 ar  
    35   18   21 1   
    36   19   20 ar  
    37   20   36 1   
    38   21   37 1   
@<TRIPOS>SUBSTRUCTURE
     1 QAP         1 TEMP              0 ****  ****    0 ROOT
