@<TRIPOS>MOLECULE
molecule
   37    38     1     0     0
SMALL
bcc


@<TRIPOS>ATOM
      1 C1           0.0000     0.0000     0.0000 c3         1 QAP      -0.037100
      2 O1          -1.9390     1.4430    -0.0000 os         1 QAP      -0.427900
      3 C2           1.5070     0.0000     0.0000 ca         1 QAP      -0.088300
      4 O2          -8.6880     6.5210    -0.0070 oh         1 QAP      -0.507100
      5 C3          -0.5110     1.4430    -0.0000 c3         1 QAP       0.150400
      6 O3         -10.1770     4.2070    -0.0180 oh         1 QAP      -0.509100
      7 C4           2.1970     0.0000     1.1970 ca         1 QAP      -0.121000
      8 O4          -1.8890     3.6660    -0.0010 o          1 QAP      -0.560000
      9 C5           2.1980    -0.0060    -1.1970 ca         1 QAP      -0.121000
     10 C6          -6.0480     4.0000    -0.0010 ca         1 QAP      -0.082800
     11 C7           3.5800    -0.0000     1.1980 ca         1 QAP      -0.126000
     12 C8           3.5800    -0.0060    -1.1970 ca         1 QAP      -0.126000
     13 C9           4.2710    -0.0000     0.0000 ca         1 QAP      -0.126000
     14 C10         -6.6860     5.2460    -0.0010 ca         1 QAP      -0.128000
     15 C11         -6.8130     2.8270    -0.0070 ca         1 QAP      -0.103000
     16 C12         -4.5810     3.9230    -0.0010 ce         1 QAP      -0.006200
     17 C13         -8.0650     5.3120    -0.0070 ca         1 QAP       0.088100
     18 C14         -2.5520     2.6450    -0.0010 c          1 QAP       0.645300
     19 C15         -8.8200     4.1390    -0.0120 ca         1 QAP       0.107100
     20 C16         -8.1880     2.9030    -0.0140 ca         1 QAP      -0.156000
     21 C17         -3.9680     2.7200    -0.0010 cf         1 QAP      -0.236200
     22 H1          -0.3610    -0.5110    -0.8840 hc         1 QAP       0.058700
     23 H1A         -0.3610    -0.5110     0.8850 hc         1 QAP       0.058700
     24 HO2         -8.5860     6.9280    -0.8520 ho         1 QAP       0.424000
     25 H3          -0.1490     1.9540     0.8840 h1         1 QAP       0.051700
     26 H3A         -0.1500     1.9540    -0.8850 h1         1 QAP       0.051700
     27 HO3        -10.5060     3.9870     0.8380 ho         1 QAP       0.426000
     28 H4           1.6560     0.0000     2.1350 ha         1 QAP       0.131000
     29 H5           1.6560    -0.0100    -2.1350 ha         1 QAP       0.131000
     30 H7           4.1210     0.0020     2.1360 ha         1 QAP       0.131000
     31 H8           4.1220    -0.0080    -2.1350 ha         1 QAP       0.131000
     32 H9           5.3540    -0.0000     0.0000 ha         1 QAP       0.130000
     33 H10         -6.0990     6.1570     0.0030 ha         1 QAP       0.149000
     34 H11         -6.3230     1.8610    -0.0070 ha         1 QAP       0.143000
     35 H12         -3.9910     4.8310    -0.0010 ha         1 QAP       0.160000
     36 H16         -8.7790     1.9940    -0.0180 ha         1 QAP       0.146000
     37 H17         -4.5580     1.8110    -0.0010 ha         1 QAP       0.145000
@<TRIPOS>BOND
     1     1     3 1
     2     1     5 1
     3     2     5 1
     4     2    18 1
     5     3     7 ar
     6     3     9 ar
     7     4    17 1
     8     6    19 1
     9     7    11 ar
    10     8    18 2
    11     9    12 ar
    12    10    14 ar
    13    10    15 ar
    14    10    16 1
    15    11    13 ar
    16    12    13 ar
    17    14    17 ar
    18    15    20 ar
    19    16    21 2
    20    17    19 ar
    21    18    21 1
    22    19    20 ar
    23     1    22 1
    24     1    23 1
    25     4    24 1
    26     5    25 1
    27     5    26 1
    28     6    27 1
    29     7    28 1
    30     9    29 1
    31    11    30 1
    32    12    31 1
    33    13    32 1
    34    14    33 1
    35    15    34 1
    36    16    35 1
    37    20    36 1
    38    21    37 1
@<TRIPOS>SUBSTRUCTURE
     1 QAP         1 TEMP              0 ****  ****    0 ROOT
