@<TRIPOS>MOLECULE
molecule
   41    44     1     0     0
SMALL
bcc


@<TRIPOS>ATOM
      1 N1           0.0000     0.0000     0.0000 nb         1 QAQ      -0.889000
      2 N3           1.9930     0.0000     1.1530 nb         1 QAQ      -0.860000
      3 C4          -2.8690     0.0000     2.2760 ca         1 QAQ      -0.091200
      4 C5          -4.1880    -0.0050     1.7940 ca         1 QAQ       0.117400
      5 C6          -2.8670     0.0010     0.0570 cc         1 QAQ       0.733700
      6 C7          -2.6310     0.0000     3.6420 ca         1 QAQ      -0.092000
      7 C8          -3.6920    -0.0000     4.5240 ca         1 QAQ      -0.113000
      8 C10         -5.2520    -0.0110     2.7000 ca         1 QAQ      -0.117000
      9 C13         -3.3600    -0.1130    -2.2950 ca         1 QAQ       0.143600
     10 C15         -5.4490    -0.9450    -3.1340 ca         1 QAQ      -0.100000
     11 C17         -4.0240     0.3670    -4.5510 ca         1 QAQ       0.104100
     12 N8           4.3440     0.0140    -3.6560 n1         1 QAQ      -0.331800
     13 C12          3.9750    -0.0010    -2.5820 c1         1 QAQ       0.184700
     14 N7           2.0200    -0.0010    -1.1950 nu         1 QAQ      -0.908900
     15 C1           1.3290     0.0000     0.0000 ca         1 QAQ       0.972900
     16 C3           1.3310     0.0000     2.2970 ca         1 QAQ       0.780900
     17 N2           0.0090     0.0000     2.3010 nb         1 QAQ      -0.854000
     18 C2          -0.6600     0.0000     1.1510 ca         1 QAQ       0.868500
     19 N4          -2.0490     0.0010     1.1570 na         1 QAQ      -0.188100
     20 C9          -4.9960     0.0010     4.0540 ca         1 QAQ      -0.124000
     21 N5          -4.1200    -0.0040     0.4360 nd         1 QAQ      -0.651100
     22 C18         -3.1050     0.4830    -3.5220 ca         1 QAQ      -0.210000
     23 C14         -4.5350    -0.8300    -2.1050 ca         1 QAQ      -0.155000
     24 C16         -5.1980    -0.3470    -4.3540 ca         1 QAQ      -0.177000
     25 O1          -3.7770     0.9510    -5.7530 oh         1 QAQ      -0.483100
     26 H7          -1.6240     0.2080     3.9820 ha         1 QAQ       0.158000
     27 H8          -3.4920    -0.2000     5.5700 ha         1 QAQ       0.137000
     28 H10         -6.2090    -0.0190     2.1930 ha         1 QAQ       0.147000
     29 H15         -6.3030    -1.5600    -2.8790 ha         1 QAQ       0.137000
     30 H11          3.7870    -0.9540    -0.7790 h1         1 QAQ       0.094200
     31 H11A         3.6930     0.9110    -0.6490 h1         1 QAQ       0.094200
     32 HN7          1.3170    -0.0390    -1.9070 hn         1 QAQ       0.470800
     33 H3           1.7200     0.1860     3.2910 h5         1 QAQ       0.075100
     34 H9          -5.9930    -0.1540     4.4490 ha         1 QAQ       0.144000
     35 HN6         -1.6930     0.2940    -1.8580 hn         1 QAQ       0.489800
     36 H18         -2.2350     1.1280    -3.5570 ha         1 QAQ       0.138000
     37 H14         -5.0170    -1.2520    -1.2310 ha         1 QAQ       0.170000
     38 H16         -5.7510    -0.5660    -5.2600 ha         1 QAQ       0.135000
     39 HO1         -3.5280     0.1280    -6.1390 ho         1 QAQ       0.409000
     40 N6          -2.4350     0.0020    -1.2530 nu         1 QAQ      -0.711600
     41 C11          3.4840    -0.0010    -1.1950 c3         1 QAQ       0.351900
@<TRIPOS>BOND
     1    18     1 ar
     2     1    15 ar
     3    15     2 ar
     4    16     2 ar
     5     4     3 ar
     6     3     6 ar
     7     3    19 1
     8     8     4 ar
     9     4    21 1
    10    21     5 2
    11     5    40 1
    12     5    19 1
    13     7     6 ar
    14     6    26 1
    15    20     7 ar
    16     7    27 1
    17     8    20 ar
    18     8    28 1
    19    23     9 ar
    20     9    40 1
    21     9    22 ar
    22    10    23 ar
    23    10    24 ar
    24    10    29 1
    25    24    11 ar
    26    11    22 ar
    27    11    25 1
    28    13    12 3
    29    41    13 1
    30    41    14 1
    31    41    30 1
    32    41    31 1
    33    15    14 1
    34    14    32 1
    35    17    16 ar
    36    16    33 1
    37    18    17 ar
    38    19    18 1
    39    20    34 1
    40    40    35 1
    41    22    36 1
    42    23    37 1
    43    24    38 1
    44    25    39 1
@<TRIPOS>SUBSTRUCTURE
     1 QAQ         1 TEMP              0 ****  ****    0 ROOT
