@<TRIPOS>MOLECULE
QAQ
   41    44     1     0     0
SMALL
bcc


@<TRIPOS>ATOM
      1 N1           0.0000     0.0000     0.0000 nb         1 QAQ      -0.789000
      2 N3           1.9930     0.0000     1.1530 nb         1 QAQ      -0.765000
      3 C4          -2.8690     0.0000     2.2760 ca         1 QAQ      -0.274200
      4 C5          -4.1880    -0.0050     1.7940 ca         1 QAQ       0.092400
      5 C6          -2.8670     0.0010     0.0570 cc         1 QAQ       0.374700
      6 C7          -2.6310     0.0000     3.6420 ca         1 QAQ      -0.059000
      7 C8          -3.6920    -0.0000     4.5240 ca         1 QAQ      -0.084000
      8 C10         -5.2520    -0.0110     2.7000 ca         1 QAQ      -0.095000
      9 C13         -3.3600    -0.1130    -2.2950 ca         1 QAQ       0.004600
     10 C15         -5.4490    -0.9450    -3.1340 ca         1 QAQ      -0.065000
     11 C17         -4.0240     0.3670    -4.5510 ca         1 QAQ       0.129100
     12 N8           4.3440     0.0140    -3.6560 n1         1 QAQ      -0.337800
     13 C12          3.9750    -0.0010    -2.5820 c1         1 QAQ       0.152700
     14 N7           2.0200    -0.0010    -1.1950 nu         1 QAQ      -0.515900
     15 C1           1.3290     0.0000     0.0000 ca         1 QAQ       0.762900
     16 C3           1.3310     0.0000     2.2970 ca         1 QAQ       0.749900
     17 N2           0.0090     0.0000     2.3010 nb         1 QAQ      -0.764000
     18 C2          -0.6600     0.0000     1.1510 ca         1 QAQ       0.634500
     19 N4          -2.0490     0.0010     1.1570 na         1 QAQ       0.309900
     20 C9          -4.9960     0.0010     4.0540 ca         1 QAQ      -0.094000
     21 N5          -4.1200    -0.0040     0.4360 nd         1 QAQ      -0.579100
     22 C18         -3.1050     0.4830    -3.5220 ca         1 QAQ      -0.192000
     23 C14         -4.5350    -0.8300    -2.1050 ca         1 QAQ      -0.147000
     24 C16         -5.1980    -0.3470    -4.3540 ca         1 QAQ      -0.162000
     25 O1          -3.7770     0.9510    -5.7530 oh         1 QAQ      -0.478100
     26 H7          -1.6240     0.2080     3.9820 ha         1 QAQ       0.130000
     27 H8          -3.4920    -0.2000     5.5700 ha         1 QAQ       0.105000
     28 H10         -6.2090    -0.0190     2.1930 ha         1 QAQ       0.118000
     29 H15         -6.3030    -1.5600    -2.8790 ha         1 QAQ       0.105000
     30 H11          3.7870    -0.9540    -0.7790 h1         1 QAQ       0.049200
     31 H11A         3.6930     0.9110    -0.6490 h1         1 QAQ       0.049200
     32 HN7          1.3170    -0.0390    -1.9070 hn         1 QAQ       0.322800
     33 H3           1.7200     0.1860     3.2910 h5         1 QAQ       0.009100
     34 H9          -5.9930    -0.1540     4.4490 ha         1 QAQ       0.115000
     35 HN6         -1.6930     0.2940    -1.8580 hn         1 QAQ       0.326800
     36 H18         -2.2350     1.1280    -3.5570 ha         1 QAQ       0.116000
     37 H14         -5.0170    -1.2520    -1.2310 ha         1 QAQ       0.149000
     38 H16         -5.7510    -0.5660    -5.2600 ha         1 QAQ       0.110000
     39 HO1         -3.5280     0.1280    -6.1390 ho         1 QAQ       0.399000
     40 N6          -2.4350     0.0020    -1.2530 nu         1 QAQ      -0.264600
     41 C11          3.4840    -0.0010    -1.1950 c3         1 QAQ       0.350900
@<TRIPOS>BOND
     1     1    15 ar  
     2     1    18 ar  
     3     2    15 ar  
     4     2    16 ar  
     5     3     4 ar  
     6     3     6 ar  
     7     3    19 1   
     8     4     8 ar  
     9     4    21 1   
    10     5    19 1   
    11     5    21 2   
    12     5    40 1   
    13     6     7 ar  
    14     6    26 1   
    15     7    20 ar  
    16     7    27 1   
    17     8    20 ar  
    18     8    28 1   
    19     9    22 ar  
    20     9    23 ar  
    21     9    40 1   
    22    10    23 ar  
    23    10    24 ar  
    24    10    29 1   
    25    11    22 ar  
    26    11    24 ar  
    27    11    25 1   
    28    12    13 3   
    29    13    41 1   
    30    14    15 1   
    31    14    32 1   
    32    14    41 1   
    33    16    17 ar  
    34    16    33 1   
    35    17    18 ar  
    36    18    19 1   
    37    20    34 1   
    38    22    36 1   
    39    23    37 1   
    40    24    38 1   
    41    25    39 1   
    42    30    41 1   
    43    31    41 1   
    44    35    40 1   
@<TRIPOS>SUBSTRUCTURE
     1 QAQ         1 TEMP              0 ****  ****    0 ROOT
