@<TRIPOS>MOLECULE
molecule
   36    39     1     0     0
SMALL
bcc


@<TRIPOS>ATOM
      1 N1           0.0000     0.0000     0.0000 nb         1 QAR      -0.817000
      2 N3           1.9860     0.0000     1.1430 nb         1 QAR      -0.863000
      3 C4           1.4750     0.0000     4.7720 ca         1 QAR      -0.088200
      4 C5           2.5580    -0.0080     5.6660 ca         1 QAR       0.113400
      5 C6           3.3870     0.0010     3.6460 cc         1 QAR       0.624700
      6 C7           0.1770     0.0010     5.2590 ca         1 QAR      -0.093000
      7 C8          -0.0470     0.0010     6.6200 ca         1 QAR      -0.141000
      8 C10          2.3160    -0.0130     7.0410 ca         1 QAR      -0.103000
      9 C13          5.6480     0.0490     4.9570 cc         1 QAR      -0.240300
     10 C14          7.0000     0.0520     4.9760 cd         1 QAR      -0.137300
     11 N8           7.4340     0.0330     3.6990 na         1 QAR      -0.049600
     12 N9           6.3110     0.0190     2.8600 nd         1 QAR      -0.604800
     13 C12          5.2370     0.0230     3.6140 cc         1 QAR       0.603200
     14 N6           4.2980     0.0010     2.6110 nu         1 QAR      -0.791900
     15 N5           3.6940    -0.0060     4.9190 nd         1 QAR      -0.649100
     16 C9           1.0200     0.0020     7.5070 ca         1 QAR      -0.124000
     17 N4           2.0250     0.0000     3.4970 na         1 QAR      -0.197100
     18 C2           1.3260     0.0000     2.2970 ca         1 QAR       0.850500
     19 N2          -0.0010     0.0010     2.3020 nb         1 QAR      -0.825000
     20 C3           1.3220     0.0000     0.0000 ca         1 QAR       0.769300
     21 C11          2.0740    -0.0010    -1.3060 c3         1 QAR      -0.131400
     22 C1          -0.6660     0.0000     1.1520 ca         1 QAR       1.006900
     23 N7          -2.0470     0.0010     1.1510 nv         1 QAR      -1.058500
     24 H7          -0.6600     0.0010     4.5720 ha         1 QAR       0.156000
     25 H8          -1.0620     0.0130     6.9990 ha         1 QAR       0.133000
     26 H10          3.1450    -0.0130     7.7390 ha         1 QAR       0.138000
     27 H14          7.6250     0.0680     5.8620 h4         1 QAR       0.167000
     28 HN6          3.9780    -0.0010     1.6630 hn         1 QAR       0.570800
     29 H9           0.8320     0.0020     8.5730 ha         1 QAR       0.131000
     30 H11          2.6970    -0.8850    -1.3630 hc         1 QAR       0.069367
     31 H11A         1.3690    -0.0020    -2.1290 hc         1 QAR       0.069367
     32 H11B         2.6970     0.8840    -1.3650 hc         1 QAR       0.069367
     33 HN7         -2.5470    -0.8650     1.1380 hn         1 QAR       0.454800
     34 HN7A        -2.5460     0.8680     1.1370 hn         1 QAR       0.454800
     35 HN8          8.3890     0.0320     3.4020 hn         1 QAR       0.317700
     36 H13          4.9980     0.0600     5.8230 ha         1 QAR       0.217000
@<TRIPOS>BOND
     1    22     1 ar
     2    20     1 ar
     3    18     2 ar
     4     2    20 ar
     5     4     3 ar
     6     3     6 ar
     7     3    17 1
     8     8     4 ar
     9     4    15 1
    10    15     5 2
    11     5    14 1
    12     5    17 1
    13     7     6 ar
    14     6    24 1
    15    16     7 ar
    16     7    25 1
    17     8    16 ar
    18     8    26 1
    19    13     9 1
    20    10     9 2
    21     9    36 1
    22    11    10 1
    23    10    27 1
    24    12    11 1
    25    12    13 2
    26    13    14 1
    27    14    28 1
    28    16    29 1
    29    17    18 1
    30    18    19 ar
    31    19    22 ar
    32    20    21 1
    33    21    30 1
    34    21    31 1
    35    21    32 1
    36    22    23 1
    37    23    33 1
    38    23    34 1
    39    11    35 1
@<TRIPOS>SUBSTRUCTURE
     1 QAR         1 TEMP              0 ****  ****    0 ROOT
