@<TRIPOS>MOLECULE
QAR
   36    40     1     0     0
SMALL
bcc


@<TRIPOS>ATOM
      1 N1           0.0000     0.0000     0.0000 nb         1 QAR      -0.704000
      2 N3           1.9860     0.0000     1.1430 nb         1 QAR      -0.738000
      3 C4           1.4750     0.0000     4.7720 ca         1 QAR      -0.225000
      4 C5           2.5580    -0.0080     5.6660 ca         1 QAR      -0.030000
      5 C6           3.3870     0.0010     3.6460 cx         1 QAR       0.093100
      6 C7           0.1770     0.0010     5.2590 ca         1 QAR      -0.057000
      7 C8          -0.0470     0.0010     6.6200 ca         1 QAR      -0.120000
      8 C10          2.3160    -0.0130     7.0410 ca         1 QAR      -0.075000
      9 C13          5.6480     0.0490     4.9570 c2         1 QAR      -0.186200
     10 C14          7.0000     0.0520     4.9760 c2         1 QAR      -0.292100
     11 N8           7.4340     0.0330     3.6990 nu         1 QAR       0.469500
     12 N9           6.3110     0.0190     2.8600 n2         1 QAR      -0.683300
     13 C12          5.2370     0.0230     3.6140 cx         1 QAR       0.275600
     14 N6           4.2980     0.0010     2.6110 n5         1 QAR      -0.307200
     15 N5           3.6940    -0.0060     4.9190 n2         1 QAR      -0.311200
     16 C9           1.0200     0.0020     7.5070 ca         1 QAR      -0.093000
     17 N4           2.0250     0.0000     3.4970 nh         1 QAR       0.298800
     18 C2           1.3260     0.0000     2.2970 ca         1 QAR       0.603500
     19 N2          -0.0010     0.0010     2.3020 nb         1 QAR      -0.705000
     20 C3           1.3220     0.0000     0.0000 ca         1 QAR       0.683300
     21 C11          2.0740    -0.0010    -1.3060 c3         1 QAR      -0.039400
     22 C1          -0.6660     0.0000     1.1520 ca         1 QAR       0.793900
     23 N7          -2.0470     0.0010     1.1510 nv         1 QAR      -0.635500
     24 H7          -0.6600     0.0010     4.5720 ha         1 QAR       0.126000
     25 H8          -1.0620     0.0130     6.9990 ha         1 QAR       0.104000
     26 H10          3.1450    -0.0130     7.7390 ha         1 QAR       0.108000
     27 H14          7.6250     0.0680     5.8620 h4         1 QAR       0.141000
     28 HN6          3.9780    -0.0010     1.6630 hn         1 QAR       0.395800
     29 H9           0.8320     0.0020     8.5730 ha         1 QAR       0.101000
     30 H11          2.6970    -0.8850    -1.3630 hc         1 QAR       0.027033
     31 H11A         1.3690    -0.0020    -2.1290 hc         1 QAR       0.027033
     32 H11B         2.6970     0.8840    -1.3650 hc         1 QAR       0.027033
     33 HN7         -2.5470    -0.8650     1.1380 hn         1 QAR       0.288800
     34 HN7A        -2.5460     0.8680     1.1370 hn         1 QAR       0.288800
     35 HN8          8.3890     0.0320     3.4020 hn         1 QAR       0.133700
     36 H13          4.9980     0.0600     5.8230 ha         1 QAR       0.213000
@<TRIPOS>BOND
     1     1    20 ar  
     2     1    22 ar  
     3     2    18 ar  
     4     2    20 ar  
     5     3     4 ar  
     6     3     6 ar  
     7     3    17 2   
     8     4     8 ar  
     9     4    15 2   
    10     5    13 1   
    11     5    14 1   
    12     5    15 1   
    13     5    17 1   
    14     6     7 ar  
    15     6    24 1   
    16     7    16 ar  
    17     7    25 1   
    18     8    16 ar  
    19     8    26 1   
    20     9    10 2   
    21     9    13 1   
    22     9    36 1   
    23    10    11 1   
    24    10    27 1   
    25    11    12 2   
    26    11    35 1   
    27    12    13 1   
    28    13    14 1   
    29    14    28 1   
    30    16    29 1   
    31    17    18 1   
    32    18    19 ar  
    33    19    22 ar  
    34    20    21 1   
    35    21    30 1   
    36    21    31 1   
    37    21    32 1   
    38    22    23 1   
    39    23    33 1   
    40    23    34 1   
@<TRIPOS>SUBSTRUCTURE
     1 QAR         1 TEMP              0 ****  ****    0 ROOT
