@<TRIPOS>MOLECULE
molecule
   32    34     1     0     0
SMALL
bcc


@<TRIPOS>ATOM
      1 N            0.0000     0.0000     0.0000 nz         1 QAY      -0.818600
      2 O           11.4080     2.5240     0.0260 o          1 QAY      -0.579500
      3 N1           5.5700     0.6650     1.4440 na         1 QAY       0.033600
      4 N2           5.5550    -0.7360     1.4440 nc         1 QAY      -0.448800
      5 N3           8.3050     0.3800     1.3010 nc         1 QAY      -0.616100
      6 N4          10.6050     0.6450     0.9530 ns         1 QAY      -0.471400
      7 N5           6.4950     3.2860     0.1660 nb         1 QAY      -0.681000
      8 C8           1.4690     0.0000     0.0000 c3         1 QAY       0.089800
      9 C9           1.9780     0.0000     1.4430 c3         1 QAY      -0.006100
     10 C10          3.4850    -0.0000     1.4430 cd         1 QAY      -0.379600
     11 C11          4.2810     1.0940     1.4430 cc         1 QAY      -0.126300
     12 C12          4.3080    -1.1320     1.4430 cd         1 QAY       0.324200
     13 C13          6.7120     2.0910     0.6860 ca         1 QAY       0.614800
     14 C14          8.0230     1.5960     0.7790 ca         1 QAY       0.113100
     15 C15          9.5240    -0.0610     1.3780 cd         1 QAY       0.535800
     16 C16         10.4520     1.8780     0.4120 c          1 QAY       0.705100
     17 C17          9.0830     2.4020     0.3110 ca         1 QAY      -0.169600
     18 C18          8.7890     3.6550    -0.2270 ca         1 QAY      -0.157300
     19 C19          7.4700     4.0580    -0.2780 ca         1 QAY       0.435200
     20 HN          -0.3340    -0.8160     0.4740 hn         1 QAY       0.455133
     21 HNA         -0.3340     0.8190     0.4690 hn         1 QAY       0.455133
     22 HN4         11.5210     0.2510     1.0390 hn         1 QAY       0.356500
     23 H8           1.8300    -0.8850    -0.5110 hx         1 QAY       0.113200
     24 H8A          1.8300     0.8850    -0.5110 hx         1 QAY       0.113200
     25 H9           1.6170    -0.8840     1.9530 hc         1 QAY       0.059700
     26 H9A          1.6170     0.8850     1.9530 hc         1 QAY       0.059700
     27 H11          3.9510     2.1260     1.4430 h4         1 QAY       0.174000
     28 H12          3.9710    -2.1620     1.4430 h4         1 QAY       0.046100
     29 H15          9.6890    -1.0430     1.8050 h5         1 QAY       0.075800
     30 H18          9.5790     4.2980    -0.5960 ha         1 QAY       0.187000
     31 H19          7.2290     5.0290    -0.6940 h4         1 QAY       0.054100
     32 HN3         -0.3340    -0.2560    -0.9080 hn         1 QAY       0.455133
@<TRIPOS>BOND
     1     1     8 1
     2     2    16 2
     3     3     4 1
     4     3    11 1
     5     3    13 1
     6     4    12 2
     7     5    14 1
     8     5    15 2
     9     6    15 1
    10     6    16 1
    11     7    13 ar
    12     7    19 ar
    13     8     9 1
    14     9    10 1
    15    10    11 2
    16    10    12 1
    17    13    14 ar
    18    14    17 ar
    19    16    17 1
    20    17    18 ar
    21    18    19 ar
    22     1    20 1
    23     1    21 1
    24     6    22 1
    25     8    23 1
    26     8    24 1
    27     9    25 1
    28     9    26 1
    29    11    27 1
    30    12    28 1
    31    15    29 1
    32    18    30 1
    33    19    31 1
    34    32     1 1
@<TRIPOS>SUBSTRUCTURE
     1 QAY         1 TEMP              0 ****  ****    0 ROOT
