@<TRIPOS>MOLECULE
QB4
   50    53     1     0     0
SMALL
bcc


@<TRIPOS>ATOM
      1 C12        -0.2350    0.1020   -0.0190 ca        1 QB4     -0.083000
      2 C13         1.1340    0.2730   -0.0780 ca        1 QB4     -0.153000
      3 C6         -4.0090   -0.2630    3.6160 ca        1 QB4     -0.089000
      4 C15         1.2160    0.0200    2.3440 ca        1 QB4     -0.182000
      5 C4         -5.1590    1.0340    5.2590 ca        1 QB4      0.485200
      6 C19        -7.1370    1.7960    2.9710 cc        1 QB4     -0.036300
      7 C5         -5.0830    0.5850    3.9130 ca        1 QB4     -0.214300
      8 C18        -5.9380    1.0500    2.8590 cd        1 QB4     -0.068300
      9 C11        -0.8980   -0.1160    1.2100 ca        1 QB4     -0.199600
     10 C10        -0.1820   -0.1350    2.4150 ca        1 QB4      0.017700
     11 C1         -2.9640   -0.4200    4.5180 ca        1 QB4     -0.118200
     12 C14         1.8760    0.2150    1.1230 ca        1 QB4      0.200900
     13 C22        -5.6790    1.0190    1.4230 cd        1 QB4      0.200600
     14 C2         -3.1720   -0.0300    5.8890 ca        1 QB4      0.684200
     15 C27        -2.3140   -0.4940    1.0560 c         1 QB4      0.585700
     16 C28        -4.7280    0.2090    0.6160 c3        1 QB4      0.101500
     17 C8         -0.6840   -0.1740    3.8470 c3        1 QB4      0.169400
     18 C9         -0.8530    1.2630    4.3110 c3        1 QB4     -0.130100
     19 N24        -8.5750    2.3560    5.0310 n1        1 QB4     -0.284800
     20 N3         -4.2940    0.7070    6.2200 nb        1 QB4     -0.707000
     21 N21        -6.6510    1.7420    0.7650 nc        1 QB4     -0.455800
     22 N20        -7.5070    2.1870    1.6630 na        1 QB4      0.160400
     23 N26        -3.2770    0.6340    0.6290 n4        1 QB4     -0.592200
     24 N17        -2.2400   -0.3400    6.8550 nh        1 QB4     -0.936500
     25 O30        -2.7710   -1.6240    1.0820 o         1 QB4     -0.394100
     26 O7         -1.8070   -1.0460    4.0700 os        1 QB4     -0.319900
     27 F16         3.2150    0.3540    1.0930 f         1 QB4     -0.098900
     28 H1         -0.8110    0.1060   -0.9590 ha        1 QB4      0.140000
     29 H2          1.6510    0.4350   -1.0370 ha        1 QB4      0.182000
     30 H3         -3.9960   -0.8500    2.6940 ha        1 QB4      0.141000
     31 H4          1.8210   -0.0110    3.2680 ha        1 QB4      0.176000
     32 H5         -5.9850    1.6900    5.5960 h4        1 QB4      0.045100
     33 H6         -4.8030   -0.8690    0.9560 hx        1 QB4      0.122200
     34 H7         -5.0440    0.2280   -0.4730 hx        1 QB4      0.122200
     35 H8          0.1210   -0.6780    4.4710 h1        1 QB4      0.093700
     36 H9         -1.7580    1.7290    3.8530 hc        1 QB4      0.062367
     37 H10        -0.9460    1.3150    5.4220 hc        1 QB4      0.062367
     38 H11         0.0460    1.8580    4.0160 hc        1 QB4      0.062367
     39 H12        -9.4620    2.7920    2.1220 h1        1 QB4      0.086367
     40 H13        -8.3830    4.0830    1.3820 h1        1 QB4      0.086367
     41 H14        -9.0630    2.7420    0.3310 h1        1 QB4      0.086367
     42 H15        -1.9550    2.1480    1.3490 hx        1 QB4      0.107367
     43 H16        -3.6540    2.7090    0.9200 hx        1 QB4      0.107367
     44 H17        -3.3720    1.7500    2.4510 hx        1 QB4      0.107367
     45 H18        -1.6220   -1.0890    6.6440 hn        1 QB4      0.445800
     46 H19        -2.4670   -0.1850    7.8110 hn        1 QB4      0.445800
     47 C25        -8.6720    2.9980    1.3520 c3        1 QB4      0.019600
     48 C29        -3.0460    1.8850    1.3830 c3        1 QB4      0.085100
     49 H261       -3.0190    0.8270   -0.3500 hn        1 QB4      0.443800
     50 C23        -7.9170    2.1070    4.1030 cg        1 QB4      0.225800
@<TRIPOS>BOND
     1    1    2 ar
     2    1    9 ar
     3    1   28 1
     4    2   12 ar
     5    2   29 1
     6    3    7 ar
     7    3   11 ar
     8    3   30 1
     9    4   10 ar
    10    4   12 ar
    11    4   31 1
    12    5    7 ar
    13    5   20 ar
    14    5   32 1
    15    6    8 2
    16    6   22 1
    17    6   50 1
    18    7    8 1
    19    8   13 1
    20    9   10 ar
    21    9   15 1
    22   10   17 1
    23   11   14 ar
    24   11   26 1
    25   12   27 1
    26   13   16 1
    27   13   21 2
    28   14   20 ar
    29   14   24 1
    30   15   23 1
    31   15   25 2
    32   16   23 1
    33   16   33 1
    34   16   34 1
    35   17   18 1
    36   17   26 1
    37   17   35 1
    38   18   36 1
    39   18   37 1
    40   18   38 1
    41   19   50 3
    42   21   22 1
    43   22   47 1
    44   23   48 1
    45   23   49 1
    46   24   45 1
    47   24   46 1
    48   39   47 1
    49   40   47 1
    50   41   47 1
    51   42   48 1
    52   43   48 1
    53   44   48 1
@<TRIPOS>SUBSTRUCTURE
     1 QB4         1 TEMP              0 ****  ****    0 ROOT
