@<TRIPOS>MOLECULE
QBB
   35    37     1     0     0
SMALL
bcc


@<TRIPOS>ATOM
      1 F1           0.0000     0.0000     0.0000 f          1 QBB      -0.125900
      2 C2           1.3510     0.0000     0.0000 ca         1 QBB       0.128900
      3 C3           2.0420     0.0000     1.2020 ca         1 QBB      -0.143500
      4 C4           3.4200    -0.0000     1.2080 ca         1 QBB      -0.031500
      5 C5           4.1210    -0.0010    -0.0010 ca         1 QBB      -0.175600
      6 C6           3.4200    -0.0010    -1.2090 ca         1 QBB      -0.031500
      7 C7           2.0410    -0.0060    -1.2020 ca         1 QBB      -0.143500
      8 C8           5.5980    -0.0000    -0.0000 c          1 QBB       0.586700
      9 O9           6.2060     0.0000     1.0520 o          1 QBB      -0.633100
     10 N10          6.2710    -0.0010    -1.1680 ns         1 QBB      -0.034100
     11 C11          7.6660     0.0980    -1.1700 ca         1 QBB      -0.098400
     12 C12          8.4090    -0.5000    -0.1610 ca         1 QBB      -0.093000
     13 C13          9.7850    -0.3970    -0.1700 ca         1 QBB      -0.087000
     14 C14         10.4310     0.2990    -1.1810 ca         1 QBB      -0.078300
     15 C15         11.9350     0.3870    -1.1440 c3         1 QBB       0.038900
     16 C16         12.4680     0.8100    -2.5130 c3         1 QBB       0.142800
     17 N17         11.7310     2.0070    -2.9500 n7         1 QBB      -0.576200
     18 C20         10.3540     1.6530    -3.3080 c3         1 QBB       0.207100
     19 C21          9.6960     0.8920    -2.1860 ca         1 QBB      -0.069300
     20 C22          8.3140     0.7880    -2.1830 ca         1 QBB      -0.128000
     21 H3           1.4980     0.0000     2.1380 ha         1 QBB       0.122500
     22 H4           3.9580     0.0000     2.1480 ha         1 QBB       0.118000
     23 H6           3.9570    -0.0040    -2.1490 ha         1 QBB       0.118000
     24 H7           1.4960    -0.0070    -2.1380 ha         1 QBB       0.122500
     25 HN10         5.7750    -0.0990    -2.0320 hn         1 QBB       0.170500
     26 H12          7.9190    -1.1240     0.5770 ha         1 QBB       0.139000
     27 H13         10.3640    -0.8640     0.6170 ha         1 QBB       0.107000
     28 H15         12.2320     1.1180    -0.4030 hc         1 QBB       0.025200
     29 H15A        12.3440    -0.5820    -0.8850 hc         1 QBB       0.025200
     30 H16         12.3150     0.0090    -3.2260 h1         1 QBB       0.007200
     31 H16A        13.5230     1.0410    -2.4360 h1         1 QBB       0.007200
     32 HN17        12.1890     2.4090    -3.7430 hn         1 QBB       0.250800
     33 H20         10.3780     1.0200    -4.1870 h1         1 QBB       0.012700
     34 H20A         9.7960     2.5660    -3.4800 h1         1 QBB       0.012700
     35 H22          7.7370     1.2490    -2.9760 ha         1 QBB       0.105000
@<TRIPOS>BOND
     1     1     2 1   
     2     2     3 ar  
     3     2     7 ar  
     4     3     4 ar  
     5     3    21 1   
     6     4     5 ar  
     7     4    22 1   
     8     5     6 ar  
     9     5     8 1   
    10     6     7 ar  
    11     6    23 1   
    12     7    24 1   
    13     8     9 2   
    14     8    10 1   
    15    10    11 1   
    16    10    25 1   
    17    11    12 ar  
    18    11    20 ar  
    19    12    13 ar  
    20    12    26 1   
    21    13    14 ar  
    22    13    27 1   
    23    14    15 1   
    24    14    19 ar  
    25    15    16 1   
    26    15    28 1   
    27    15    29 1   
    28    16    17 1   
    29    16    30 1   
    30    16    31 1   
    31    17    18 1   
    32    17    32 1   
    33    18    19 1   
    34    18    33 1   
    35    18    34 1   
    36    19    20 ar  
    37    20    35 1   
@<TRIPOS>SUBSTRUCTURE
     1 QBB         1 TEMP              0 ****  ****    0 ROOT
