@<TRIPOS>MOLECULE
molecule
   35    37     1     0     0
SMALL
bcc


@<TRIPOS>ATOM
      1 F1           0.0000     0.0000     0.0000 f          1 QBB      -0.134900
      2 C2           1.3510     0.0000     0.0000 ca         1 QBB       0.158900
      3 C3           2.0420     0.0000     1.2020 ca         1 QBB      -0.178000
      4 C4           3.4200    -0.0000     1.2080 ca         1 QBB      -0.060000
      5 C5           4.1210    -0.0010    -0.0010 ca         1 QBB      -0.166600
      6 C6           3.4200    -0.0010    -1.2090 ca         1 QBB      -0.060000
      7 C7           2.0410    -0.0060    -1.2020 ca         1 QBB      -0.178000
      8 C8           5.5980    -0.0000    -0.0000 c          1 QBB       0.677700
      9 O9           6.2060     0.0000     1.0520 o          1 QBB      -0.591100
     10 N10          6.2710    -0.0010    -1.1680 ns         1 QBB      -0.475100
     11 C11          7.6660     0.0980    -1.1700 ca         1 QBB       0.049600
     12 C12          8.4090    -0.5000    -0.1610 ca         1 QBB      -0.119000
     13 C13          9.7850    -0.3970    -0.1700 ca         1 QBB      -0.116000
     14 C14         10.4310     0.2990    -1.1810 ca         1 QBB      -0.076300
     15 C15         11.9350     0.3870    -1.1440 c3         1 QBB      -0.027100
     16 C16         12.4680     0.8100    -2.5130 c3         1 QBB       0.153800
     17 N17         11.7310     2.0070    -2.9500 n7         1 QBB      -0.811200
     18 C20         10.3540     1.6530    -3.3080 c3         1 QBB       0.205100
     19 C21          9.6960     0.8920    -2.1860 ca         1 QBB      -0.061300
     20 C22          8.3140     0.7880    -2.1830 ca         1 QBB      -0.158000
     21 H3           1.4980     0.0000     2.1380 ha         1 QBB       0.151000
     22 H4           3.9580     0.0000     2.1480 ha         1 QBB       0.148000
     23 H6           3.9570    -0.0040    -2.1490 ha         1 QBB       0.148000
     24 H7           1.4960    -0.0070    -2.1380 ha         1 QBB       0.151000
     25 HN10         5.7750    -0.0990    -2.0320 hn         1 QBB       0.323500
     26 H12          7.9190    -1.1240     0.5770 ha         1 QBB       0.160000
     27 H13         10.3640    -0.8640     0.6170 ha         1 QBB       0.135000
     28 H15         12.2320     1.1180    -0.4030 hc         1 QBB       0.057200
     29 H15A        12.3440    -0.5820    -0.8850 hc         1 QBB       0.057200
     30 H16         12.3150     0.0090    -3.2260 h1         1 QBB       0.034700
     31 H16A        13.5230     1.0410    -2.4360 h1         1 QBB       0.034700
     32 HN17        12.1890     2.4090    -3.7430 hn         1 QBB       0.353800
     33 H20         10.3780     1.0200    -4.1870 h1         1 QBB       0.042700
     34 H20A         9.7960     2.5660    -3.4800 h1         1 QBB       0.042700
     35 H22          7.7370     1.2490    -2.9760 ha         1 QBB       0.127000
@<TRIPOS>BOND
     1     1     2 1
     2     2     3 ar
     3     2     7 ar
     4     3     4 ar
     5     4     5 ar
     6     5     6 ar
     7     5     8 1
     8     6     7 ar
     9     8     9 2
    10     8    10 1
    11    10    11 1
    12    11    12 ar
    13    11    20 ar
    14    12    13 ar
    15    13    14 ar
    16    14    15 1
    17    14    19 ar
    18    15    16 1
    19    16    17 1
    20    17    18 1
    21    18    19 1
    22    19    20 ar
    23     3    21 1
    24     4    22 1
    25     6    23 1
    26     7    24 1
    27    10    25 1
    28    12    26 1
    29    13    27 1
    30    15    28 1
    31    15    29 1
    32    16    30 1
    33    16    31 1
    34    17    32 1
    35    18    33 1
    36    18    34 1
    37    20    35 1
@<TRIPOS>SUBSTRUCTURE
     1 QBB         1 TEMP              0 ****  ****    0 ROOT
