@<TRIPOS>MOLECULE
molecule
   78    81     1     0     0
SMALL
bcc


@<TRIPOS>ATOM
      1 S1           0.0000     0.0000     0.0000 s6         1 QBH       1.101000
      2 C2           1.8160     0.0000     0.0000 c3         1 QBH      -0.249600
      3 C5           2.3150     0.0000     1.4480 c3         1 QBH       0.170500
      4 C7           1.8810    -1.2850     2.1480 c3         1 QBH       0.149100
      5 C9           0.3730    -1.2920     2.3750 c3         1 QBH      -0.060700
      6 C11         -0.3570    -1.4460     1.0390 c3         1 QBH      -0.203600
      7 C14          0.0030    -2.4580     3.2940 c3         1 QBH      -0.020100
      8 C17         -1.4670    -2.3950     3.6190 ca         1 QBH      -0.107300
      9 C18         -2.3810    -3.0440     2.8100 ca         1 QBH      -0.107000
     10 C20         -3.7300    -2.9870     3.1050 ca         1 QBH      -0.106300
     11 C21         -4.1660    -2.2790     4.2160 ca         1 QBH       0.117100
     12 C22         -3.2460    -1.6290     5.0260 ca         1 QBH      -0.180000
     13 C24         -1.8990    -1.6940     4.7290 ca         1 QBH      -0.093000
     14 O26         -5.4910    -2.2220     4.5090 oh         1 QBH      -0.514100
     15 C28         -4.7260    -3.6940     2.2230 c3         1 QBH      -0.036100
     16 C31         -5.2530    -4.9370     2.9420 c3         1 QBH       0.058700
     17 N33         -4.1800    -5.9290     3.1110 n          1 QBH      -0.518800
     18 C34         -4.5190    -7.0500     2.4580 c          1 QBH       0.825600
     19 O35         -5.7040    -6.9800     1.8410 os         1 QBH      -0.390900
     20 C36         -6.2960    -5.6640     2.0710 c3         1 QBH       0.124400
     21 O39         -3.8130    -8.0390     2.4280 o          1 QBH      -0.634500
     22 C40         -2.9430    -5.7260     3.8690 c3         1 QBH       0.126000
     23 C43         -3.1080    -6.3000     5.2770 c3         1 QBH      -0.107400
     24 C46         -1.8160    -6.0870     6.0690 c3         1 QBH      -0.090100
     25 O50          2.5490    -1.3830     3.4080 oh         1 QBH      -0.577800
     26 N52          3.7800     0.0910     1.4590 n7         1 QBH      -0.790200
     27 C54          4.2230     1.4790     1.2640 c3         1 QBH       0.205100
     28 C57          5.7290     1.5330     1.2810 ca         1 QBH      -0.089300
     29 C58          6.4390     1.3850     0.1060 ca         1 QBH      -0.124000
     30 C60          7.8210     1.4340     0.1220 ca         1 QBH      -0.076300
     31 C61          8.4910     1.6320     1.3140 ca         1 QBH      -0.119000
     32 C63          7.7800     1.7800     2.4900 ca         1 QBH      -0.128000
     33 C65          6.3990     1.7360     2.4740 ca         1 QBH      -0.106000
     34 C67          8.5960     1.2730    -1.1600 c3         1 QBH      -0.030400
     35 C69          9.4340     2.5270    -1.4120 c3         1 QBH      -0.085100
     36 C73          9.5180     0.0570    -1.0490 c3         1 QBH      -0.085100
     37 O77         -0.4550    -0.2650    -1.3200 o          1 QBH      -0.609300
     38 O78         -0.4560     1.1670     0.6720 o          1 QBH      -0.609300
     39 H2           2.1780    -0.8870    -0.5070 h1         1 QBH       0.105700
     40 H2A          2.1780     0.8870    -0.5070 h1         1 QBH       0.105700
     41 H5           1.8940     0.8500     1.9700 h1         1 QBH       0.091700
     42 H7           2.1510    -2.1340     1.5300 h1         1 QBH       0.033700
     43 H9           0.0780    -0.3580     2.8380 hc         1 QBH       0.085700
     44 H11         -0.0120    -2.3440     0.5400 h1         1 QBH       0.107700
     45 H11A        -1.4240    -1.5100     1.2150 h1         1 QBH       0.107700
     46 H14          0.2230    -3.3940     2.7950 hc         1 QBH       0.061200
     47 H14A         0.5790    -2.3930     4.2090 hc         1 QBH       0.061200
     48 H18         -2.0400    -3.5970     1.9430 ha         1 QBH       0.142000
     49 H22         -3.5840    -1.0770     5.8950 ha         1 QBH       0.141000
     50 H24         -1.1800    -1.1860     5.3610 ha         1 QBH       0.142000
     51 HO26        -5.7420    -1.3250     4.6560 ho         1 QBH       0.425000
     52 H28         -4.2440    -3.9880     1.2980 hc         1 QBH       0.062200
     53 H28A        -5.5510    -3.0270     2.0040 hc         1 QBH       0.062200
     54 H31         -5.6790    -4.6750     3.9020 h1         1 QBH       0.084700
     55 H36         -7.1730    -5.8160     2.6900 h1         1 QBH       0.081200
     56 H36A        -6.3190    -5.1570     1.1150 h1         1 QBH       0.081200
     57 H40         -2.7290    -4.6670     3.9330 h1         1 QBH       0.066700
     58 H40A        -2.1260    -6.2300     3.3670 h1         1 QBH       0.066700
     59 H43         -3.9260    -5.7960     5.7790 hc         1 QBH       0.052700
     60 H43A        -3.3220    -7.3600     5.2130 hc         1 QBH       0.052700
     61 H46         -1.7510    -6.8260     6.8600 hc         1 QBH       0.034367
     62 H46A        -0.9650    -6.1920     5.4070 hc         1 QBH       0.034367
     63 H46B        -1.8170    -5.0940     6.5020 hc         1 QBH       0.034367
     64 HO50         3.1320    -2.1240     3.3980 ho         1 QBH       0.411000
     65 HN52         4.1560    -0.4850     0.7310 hn         1 QBH       0.356800
     66 H54          3.8300     2.0980     2.0620 h1         1 QBH       0.041700
     67 H54A         3.8600     1.8430     0.3110 h1         1 QBH       0.041700
     68 H58          5.9140     1.2300    -0.8290 ha         1 QBH       0.126000
     69 H61          9.5740     1.6680     1.3270 ha         1 QBH       0.132000
     70 H63          8.3060     1.9370     3.4240 ha         1 QBH       0.131000
     71 H65          5.8420     1.8520     3.3960 ha         1 QBH       0.137000
     72 H67          7.9060     1.1290    -1.9830 hc         1 QBH       0.052700
     73 H69          8.8130     3.4070    -1.2920 hc         1 QBH       0.036533
     74 H69A        10.2520     2.5630    -0.7030 hc         1 QBH       0.036533
     75 H69B         9.8310     2.5000    -2.4200 hc         1 QBH       0.036533
     76 H73          8.9550    -0.7910    -0.6770 hc         1 QBH       0.036533
     77 H73A         9.9230    -0.1800    -2.0260 hc         1 QBH       0.036533
     78 H73B        10.3290     0.2790    -0.3660 hc         1 QBH       0.036533
@<TRIPOS>BOND
     1    38     1 2
     2     2     1 1
     3     1    37 2
     4     1     6 1
     5     3     2 1
     6     2    39 1
     7     2    40 1
     8    26     3 1
     9     3     4 1
    10     3    41 1
    11    25     4 1
    12     4     5 1
    13     4    42 1
    14     5     6 1
    15     5     7 1
    16     5    43 1
    17     6    44 1
    18     6    45 1
    19     7     8 1
    20     7    46 1
    21     7    47 1
    22    13     8 ar
    23     8     9 ar
    24     9    10 ar
    25     9    48 1
    26    11    10 ar
    27    10    15 1
    28    12    11 ar
    29    11    14 1
    30    13    12 ar
    31    12    49 1
    32    13    50 1
    33    14    51 1
    34    15    16 1
    35    15    52 1
    36    15    53 1
    37    20    16 1
    38    17    16 1
    39    16    54 1
    40    18    17 1
    41    17    22 1
    42    19    18 1
    43    21    18 2
    44    19    20 1
    45    20    55 1
    46    20    56 1
    47    22    23 1
    48    22    57 1
    49    22    58 1
    50    23    24 1
    51    23    59 1
    52    23    60 1
    53    24    61 1
    54    24    62 1
    55    24    63 1
    56    25    64 1
    57    27    26 1
    58    26    65 1
    59    28    27 1
    60    27    66 1
    61    27    67 1
    62    29    28 ar
    63    33    28 ar
    64    30    29 ar
    65    29    68 1
    66    34    30 1
    67    31    30 ar
    68    31    32 ar
    69    31    69 1
    70    32    33 ar
    71    32    70 1
    72    33    71 1
    73    36    34 1
    74    34    35 1
    75    34    72 1
    76    35    73 1
    77    35    74 1
    78    35    75 1
    79    36    76 1
    80    36    77 1
    81    36    78 1
@<TRIPOS>SUBSTRUCTURE
     1 QBH         1 TEMP              0 ****  ****    0 ROOT
