@<TRIPOS>MOLECULE
QBY
   53    56     1     0     0
SMALL
bcc


@<TRIPOS>ATOM
      1 O1           0.0000     0.0000     0.0000 o          1 QBY      -0.601100
      2 C18          1.2160     0.0000     0.0000 c          1 QBY       0.604700
      3 N1           1.8900     0.0000     1.1680 n          1 QBY      -0.155800
      4 C22          3.3590    -0.0900     1.1940 c3         1 QBY      -0.000500
      5 C21          3.8960     1.0350     2.0870 c3         1 QBY       0.198900
      6 O2           3.2330     0.9890     3.3530 os         1 QBY      -0.404600
      7 C20          1.8220     1.2070     3.2840 c3         1 QBY       0.198900
      8 C19          1.1790     0.0960     2.4520 c3         1 QBY      -0.000500
      9 C17          1.9520    -0.0060    -1.2750 ca         1 QBY      -0.196900
     10 C2           1.6780     0.9590    -2.2560 ca         1 QBY       0.089900
     11 S            0.4550     2.2000    -1.9980 ss         1 QBY      -0.320000
     12 C1           1.4720     3.4930    -1.2440 c3         1 QBY       0.077700
     13 C            0.5980     4.7070    -0.9230 c3         1 QBY       0.024900
     14 C16          2.9400    -0.9730    -1.5190 ca         1 QBY       0.381200
     15 N            3.6100    -1.0010    -2.6420 nb         1 QBY      -0.533000
     16 C15          3.3940    -0.1120    -3.6230 ca         1 QBY       0.328600
     17 C3           2.4200     0.9010    -3.4630 ca         1 QBY      -0.074300
     18 C14          4.1300    -0.1720    -4.8170 ca         1 QBY      -0.093300
     19 C13          3.9000     0.7360    -5.8050 ca         1 QBY      -0.187000
     20 C5           2.9370     1.7360    -5.6540 ca         1 QBY       0.163100
     21 C4           2.2040     1.8290    -4.4900 ca         1 QBY      -0.154000
     22 O            2.7280     2.6300    -6.6550 os         1 QBY      -0.294900
     23 C6           3.5290     2.4860    -7.8300 c3         1 QBY       0.261700
     24 C7           3.1610     3.5580    -8.8230 ca         1 QBY      -0.116300
     25 C12          3.8180     4.7740    -8.8050 ca         1 QBY      -0.074000
     26 C11          3.4790     5.7570    -9.7160 ca         1 QBY      -0.104500
     27 C10          2.4830     5.5230   -10.6470 ca         1 QBY      -0.088000
     28 C9           1.8270     4.3070   -10.6660 ca         1 QBY      -0.104500
     29 C8           2.1680     3.3230    -9.7580 ca         1 QBY      -0.074000
     30 H221         3.6570    -1.0490     1.6000 h1         1 QBY       0.042200
     31 H222         3.7490     0.0250     0.1900 h1         1 QBY       0.042200
     32 H191         0.1370     0.3330     2.2730 h1         1 QBY       0.042200
     33 H192         1.2580    -0.8460     2.9820 h1         1 QBY       0.042200
     34 H211         3.7060     1.9910     1.6150 h1         1 QBY       0.014450
     35 H212         4.9610     0.9020     2.2320 h1         1 QBY       0.014450
     36 H201         1.4060     1.1950     4.2840 h1         1 QBY       0.014450
     37 H202         1.6280     2.1650     2.8160 h1         1 QBY       0.014450
     38 H16          3.1500    -1.7170    -0.7600 h4         1 QBY      -0.009900
     39 H11C         2.2550     3.7850    -1.9340 h1         1 QBY       0.031200
     40 H12C         1.9160     3.1170    -0.3310 h1         1 QBY       0.031200
     41 HC1          0.1490     5.0800    -1.8350 hc         1 QBY       0.013367
     42 HC2         -0.1810     4.4180    -0.2290 hc         1 QBY       0.013367
     43 HC3          1.2090     5.4840    -0.4780 hc         1 QBY       0.013367
     44 H14          4.8820    -0.9400    -4.9520 ha         1 QBY       0.118000
     45 H4           1.4570     2.6060    -4.3750 ha         1 QBY       0.154000
     46 H13          4.4670     0.6770    -6.7260 ha         1 QBY       0.122000
     47 H61C         3.3530     1.5110    -8.2690 h1         1 QBY       0.004700
     48 H62C         4.5750     2.5810    -7.5680 h1         1 QBY       0.004700
     49 H12          4.5980     4.9570    -8.0760 ha         1 QBY       0.106000
     50 H8           1.6530     2.3700    -9.7730 ha         1 QBY       0.106000
     51 H11          3.9940     6.7100    -9.7010 ha         1 QBY       0.104500
     52 H10          2.2170     6.2940   -11.3590 ha         1 QBY       0.103000
     53 H9           1.0490     4.1240   -11.3960 ha         1 QBY       0.104500
@<TRIPOS>BOND
     1     1     2 2   
     2     2     3 1   
     3     2     9 1   
     4     3     4 1   
     5     3     8 1   
     6     4     5 1   
     7     4    30 1   
     8     4    31 1   
     9     5     6 1   
    10     5    34 1   
    11     5    35 1   
    12     6     7 1   
    13     7     8 1   
    14     7    36 1   
    15     7    37 1   
    16     8    32 1   
    17     8    33 1   
    18     9    10 ar  
    19     9    14 ar  
    20    10    11 1   
    21    10    17 ar  
    22    11    12 1   
    23    12    13 1   
    24    12    39 1   
    25    12    40 1   
    26    13    41 1   
    27    13    42 1   
    28    13    43 1   
    29    14    15 ar  
    30    14    38 1   
    31    15    16 ar  
    32    16    17 ar  
    33    16    18 ar  
    34    17    21 ar  
    35    18    19 ar  
    36    18    44 1   
    37    19    20 ar  
    38    19    46 1   
    39    20    21 ar  
    40    20    22 1   
    41    21    45 1   
    42    22    23 1   
    43    23    24 1   
    44    23    47 1   
    45    23    48 1   
    46    24    25 ar  
    47    24    29 ar  
    48    25    26 ar  
    49    25    49 1   
    50    26    27 ar  
    51    26    51 1   
    52    27    28 ar  
    53    27    52 1   
    54    28    29 ar  
    55    28    53 1   
    56    29    50 1   
@<TRIPOS>SUBSTRUCTURE
     1 QBY         1 TEMP              0 ****  ****    0 ROOT
