@<TRIPOS>MOLECULE
molecule
   53    56     1     0     0
SMALL
bcc


@<TRIPOS>ATOM
      1 O1           0.0000     0.0000     0.0000 o          1 QBY      -0.568100
      2 C18          1.2160     0.0000     0.0000 c          1 QBY       0.673700
      3 N1           1.8900     0.0000     1.1680 n          1 QBY      -0.494800
      4 C22          3.3590    -0.0900     1.1940 c3         1 QBY       0.065000
      5 C21          3.8960     1.0350     2.0870 c3         1 QBY       0.120900
      6 O2           3.2330     0.9890     3.3530 os         1 QBY      -0.418600
      7 C20          1.8220     1.2070     3.2840 c3         1 QBY       0.120900
      8 C19          1.1790     0.0960     2.4520 c3         1 QBY       0.065000
      9 C17          1.9520    -0.0060    -1.2750 ca         1 QBY      -0.213900
     10 C2           1.6780     0.9590    -2.2560 ca         1 QBY       0.080900
     11 S            0.4550     2.2000    -1.9980 ss         1 QBY      -0.241000
     12 C1           1.4720     3.4930    -1.2440 c3         1 QBY      -0.008300
     13 C            0.5980     4.7070    -0.9230 c3         1 QBY      -0.079100
     14 C16          2.9400    -0.9730    -1.5190 ca         1 QBY       0.419200
     15 N            3.6100    -1.0010    -2.6420 nb         1 QBY      -0.660000
     16 C15          3.3940    -0.1120    -3.6230 ca         1 QBY       0.385600
     17 C3           2.4200     0.9010    -3.4630 ca         1 QBY      -0.095300
     18 C14          4.1300    -0.1720    -4.8170 ca         1 QBY      -0.126300
     19 C13          3.9000     0.7360    -5.8050 ca         1 QBY      -0.196000
     20 C5           2.9370     1.7360    -5.6540 ca         1 QBY       0.147100
     21 C4           2.2040     1.8290    -4.4900 ca         1 QBY      -0.157000
     22 O            2.7280     2.6300    -6.6550 os         1 QBY      -0.316900
     23 C6           3.5290     2.4860    -7.8300 c3         1 QBY       0.185700
     24 C7           3.1610     3.5580    -8.8230 ca         1 QBY      -0.098300
     25 C12          3.8180     4.7740    -8.8050 ca         1 QBY      -0.102000
     26 C11          3.4790     5.7570    -9.7160 ca         1 QBY      -0.131500
     27 C10          2.4830     5.5230   -10.6470 ca         1 QBY      -0.115000
     28 C9           1.8270     4.3070   -10.6660 ca         1 QBY      -0.131500
     29 C8           2.1680     3.3230    -9.7580 ca         1 QBY      -0.102000
     30 H221         3.6570    -1.0490     1.6000 h1         1 QBY       0.067450
     31 H222         3.7490     0.0250     0.1900 h1         1 QBY       0.067450
     32 H191         0.1370     0.3330     2.2730 h1         1 QBY       0.067450
     33 H192         1.2580    -0.8460     2.9820 h1         1 QBY       0.067450
     34 H211         3.7060     1.9910     1.6150 h1         1 QBY       0.055200
     35 H212         4.9610     0.9020     2.2320 h1         1 QBY       0.055200
     36 H201         1.4060     1.1950     4.2840 h1         1 QBY       0.055200
     37 H202         1.6280     2.1650     2.8160 h1         1 QBY       0.055200
     38 H16          3.1500    -1.7170    -0.7600 h4         1 QBY       0.032100
     39 H11C         2.2550     3.7850    -1.9340 h1         1 QBY       0.058200
     40 H12C         1.9160     3.1170    -0.3310 h1         1 QBY       0.058200
     41 HC1          0.1490     5.0800    -1.8350 hc         1 QBY       0.047033
     42 HC2         -0.1810     4.4180    -0.2290 hc         1 QBY       0.047033
     43 HC3          1.2090     5.4840    -0.4780 hc         1 QBY       0.047033
     44 H14          4.8820    -0.9400    -4.9520 ha         1 QBY       0.152000
     45 H4           1.4570     2.6060    -4.3750 ha         1 QBY       0.173000
     46 H13          4.4670     0.6770    -6.7260 ha         1 QBY       0.141000
     47 H61C         3.3530     1.5110    -8.2690 h1         1 QBY       0.041700
     48 H62C         4.5750     2.5810    -7.5680 h1         1 QBY       0.041700
     49 H12          4.5980     4.9570    -8.0760 ha         1 QBY       0.134000
     50 H8           1.6530     2.3700    -9.7730 ha         1 QBY       0.134000
     51 H11          3.9940     6.7100    -9.7010 ha         1 QBY       0.133000
     52 H10          2.2170     6.2940   -11.3590 ha         1 QBY       0.132000
     53 H9           1.0490     4.1240   -11.3960 ha         1 QBY       0.133000
@<TRIPOS>BOND
     1     1     2 2
     2     2     3 1
     3     2     9 1
     4     3     4 1
     5     3     8 1
     6     4     5 1
     7     5     6 1
     8     6     7 1
     9     7     8 1
    10     9    10 ar
    11     9    14 ar
    12    10    11 1
    13    10    17 ar
    14    11    12 1
    15    12    13 1
    16    14    15 ar
    17    15    16 ar
    18    16    17 ar
    19    16    18 ar
    20    17    21 ar
    21    18    19 ar
    22    19    20 ar
    23    20    21 ar
    24    20    22 1
    25    22    23 1
    26    23    24 1
    27    24    25 ar
    28    24    29 ar
    29    25    26 ar
    30    26    27 ar
    31    27    28 ar
    32    28    29 ar
    33     4    30 1
    34     4    31 1
    35     8    32 1
    36     8    33 1
    37     5    34 1
    38     5    35 1
    39     7    36 1
    40     7    37 1
    41    14    38 1
    42    12    39 1
    43    12    40 1
    44    13    41 1
    45    13    42 1
    46    13    43 1
    47    18    44 1
    48    21    45 1
    49    19    46 1
    50    23    47 1
    51    23    48 1
    52    25    49 1
    53    29    50 1
    54    26    51 1
    55    27    52 1
    56    28    53 1
@<TRIPOS>SUBSTRUCTURE
     1 QBY         1 TEMP              0 ****  ****    0 ROOT
