@<TRIPOS>MOLECULE
QC0
   58    62     1     0     0
SMALL
bcc


@<TRIPOS>ATOM
      1 C1         -0.1570    0.5140   -0.5210 c3        1 QC0      0.157100
      2 N2          1.2700    0.5180   -0.2940 n3        1 QC0     -0.732600
      3 C3          1.6190    0.1180    1.0610 c3        1 QC0      0.164800
      4 C4          3.1410    0.1060    1.3110 c3        1 QC0      0.184800
      5 N5          3.8600   -0.6600    0.3070 nh        1 QC0     -0.634000
      6 C6          3.5180   -0.2680   -1.0530 c3        1 QC0      0.184800
      7 C7          1.9950   -0.2510   -1.2960 c3        1 QC0      0.164800
      8 C8          5.2390   -0.8810    0.5480 ca        1 QC0      0.121600
      9 C9          5.9290   -0.2810    1.6320 ca        1 QC0     -0.147000
     10 C10         7.2510   -0.5830    1.9080 ca        1 QC0     -0.094000
     11 C11         7.9640   -1.4950    1.1010 ca        1 QC0      0.143400
     12 N12         9.3040   -1.8060    1.3780 nc        1 QC0     -0.607100
     13 C13         9.9070   -2.6550    0.5880 cd        1 QC0      0.490800
     14 N14         9.3560   -3.2820   -0.5420 n         1 QC0     -0.322500
     15 C15        10.1630   -4.2160   -1.2570 ca        1 QC0      0.052600
     16 C16        10.6350   -5.3540   -0.5720 ca        1 QC0     -0.150000
     17 C17        11.4540   -6.2920   -1.2260 ca        1 QC0      0.068600
     18 N18        11.9310   -7.4490   -0.5870 n         1 QC0     -0.473100
     19 C19        12.0990   -7.6200    0.7850 c         1 QC0      0.712700
     20 O20        11.8040   -6.7350    1.6100 o         1 QC0     -0.583100
     21 C21        12.6430   -8.9170    1.2110 cc        1 QC0     -0.288900
     22 C22        13.1540   -9.1680    2.5470 cc        1 QC0     -0.209300
     23 C23        13.5560  -10.4850    2.5680 cd        1 QC0      0.232600
     24 O24        13.3220  -11.0800    1.3210 os        1 QC0     -0.352800
     25 C25        12.7650  -10.1050    0.5080 cd        1 QC0      0.284600
     26 C26        11.7800   -6.0800   -2.5870 ca        1 QC0     -0.170000
     27 C27        11.3060   -4.9590   -3.2490 ca        1 QC0     -0.104000
     28 C28        10.5070   -4.0040   -2.6100 ca        1 QC0     -0.067300
     29 C29        10.0410   -2.8180   -3.3640 c3        1 QC0     -0.061800
     30 C30         7.9980   -3.0520   -0.8660 c         1 QC0      0.712100
     31 C32         7.2830   -2.0890    0.0070 ca        1 QC0     -0.161600
     32 C31         5.9460   -1.7940   -0.2600 ca        1 QC0     -0.099000
     33 O31         7.4620   -3.6270   -1.8290 o         1 QC0     -0.613500
     34 H11C       -0.6210   -0.5070   -0.4350 h1        1 QC0      0.033367
     35 H12C       -0.6430    1.1910    0.2290 h1        1 QC0      0.033367
     36 H13C       -0.3590    0.9110   -1.5510 h1        1 QC0      0.033367
     37 H31C        1.2030   -0.8990    1.3180 h1        1 QC0      0.040450
     38 H32C        1.1650    0.8670    1.7680 h1        1 QC0      0.040450
     39 H71C        1.6260   -1.3170   -1.3530 h1        1 QC0      0.040450
     40 H72C        1.8160    0.2320   -2.2960 h1        1 QC0      0.040450
     41 H41C        3.5060    1.1740    1.3580 h1        1 QC0      0.045450
     42 H42C        3.3170   -0.3740    2.3140 h1        1 QC0      0.045450
     43 H61C        3.9350    0.7520   -1.2970 h1        1 QC0      0.045450
     44 H62C        3.9670   -1.0100   -1.7700 h1        1 QC0      0.045450
     45 H9          5.4180    0.4460    2.2830 ha        1 QC0      0.138000
     46 H10         7.7550   -0.1050    2.7640 ha        1 QC0      0.152000
     47 H13        10.9650   -2.9190    0.8120 h5        1 QC0      0.065800
     48 H16        10.3620   -5.5060    0.4870 ha        1 QC0      0.177000
     49 H18        12.3040   -8.1490   -1.1880 hn        1 QC0      0.315500
     50 H26        12.4090   -6.8010   -3.1310 ha        1 QC0      0.132000
     51 H22        13.1860   -8.4290    3.3450 ha        1 QC0      0.186000
     52 H25        12.5170  -10.4400   -0.4960 h4        1 QC0      0.058100
     53 H23        13.9960  -11.1520    3.3040 h4        1 QC0      0.062100
     54 H27        11.5700   -4.8110   -4.3090 ha        1 QC0      0.139000
     55 H291        8.9240   -2.8410   -3.4610 hc        1 QC0      0.054033
     56 H292       10.4840   -2.7920   -4.3900 hc        1 QC0      0.054033
     57 H293       10.3300   -1.8750   -2.8350 hc        1 QC0      0.054033
     58 H31         5.4600   -2.3070   -1.1080 ha        1 QC0      0.163000
@<TRIPOS>BOND
     1    1    2 1
     2    1   34 1
     3    1   35 1
     4    1   36 1
     5    2    3 1
     6    2    7 1
     7    3    4 1
     8    3   37 1
     9    3   38 1
    10    4    5 1
    11    4   41 1
    12    4   42 1
    13    5    6 1
    14    5    8 1
    15    6    7 1
    16    6   43 1
    17    6   44 1
    18    7   39 1
    19    7   40 1
    20    8    9 ar
    21    8   32 ar
    22    9   10 ar
    23    9   45 1
    24   10   11 ar
    25   10   46 1
    26   11   12 1
    27   11   31 ar
    28   12   13 2
    29   13   14 1
    30   13   47 1
    31   14   15 1
    32   14   30 1
    33   15   16 ar
    34   15   28 ar
    35   16   17 ar
    36   16   48 1
    37   17   18 1
    38   17   26 ar
    39   18   19 1
    40   18   49 1
    41   19   20 2
    42   19   21 1
    43   21   22 1
    44   21   25 2
    45   22   23 2
    46   22   51 1
    47   23   24 1
    48   23   53 1
    49   24   25 1
    50   25   52 1
    51   26   27 ar
    52   26   50 1
    53   27   28 ar
    54   27   54 1
    55   28   29 1
    56   29   55 1
    57   29   56 1
    58   29   57 1
    59   30   31 1
    60   30   33 2
    61   31   32 ar
    62   32   58 1
@<TRIPOS>SUBSTRUCTURE
     1 QC0         1 TEMP              0 ****  ****    0 ROOT
