@<TRIPOS>MOLECULE
QC1
   28    29     1     0     0
SMALL
bcc


@<TRIPOS>ATOM
      1 F18          0.0000     0.0000     0.0000 f          1 QC1      -0.138900
      2 C15          1.3510     0.0000     0.0000 ca         1 QC1       0.090900
      3 C14          2.0440     0.0000     1.1990 ca         1 QC1      -0.138500
      4 C13          3.4260     0.0000     1.1980 ca         1 QC1      -0.054500
      5 C16          2.0440    -0.0050    -1.1990 ca         1 QC1      -0.138500
      6 C17          3.4260    -0.0060    -1.1980 ca         1 QC1      -0.054500
      7 C12          4.1160    -0.0000     0.0000 ca         1 QC1      -0.099300
      8 C11          5.6240    -0.0010    -0.0000 c3         1 QC1       0.223100
      9 N10          6.1130    -1.3810    -0.0010 nu         1 QC1      -0.463600
     10 C2           7.4770    -1.6350    -0.0000 ca         1 QC1      -0.008700
     11 C1           7.9610    -2.9510     0.1120 ca         1 QC1      -0.162600
     12 C7           7.0340    -4.0940     0.2350 c          1 QC1       0.997200
     13 O9           7.5170    -5.3320     0.4560 o          1 QC1      -0.880300
     14 O8           5.8370    -3.9170     0.1350 o          1 QC1      -0.880300
     15 C3           8.3910    -0.5930    -0.1190 ca         1 QC1       0.245200
     16 N4           9.6860    -0.8290    -0.1200 nb         1 QC1      -0.570000
     17 C5          10.1780    -2.0490    -0.0110 ca         1 QC1       0.260200
     18 C6           9.3480    -3.1450     0.1070 ca         1 QC1      -0.112300
     19 H1           1.5030     0.0000     2.1370 ha         1 QC1       0.111500
     20 H2           3.9680     0.0020     2.1360 ha         1 QC1       0.112500
     21 H3           1.5030    -0.0090    -2.1380 ha         1 QC1       0.111500
     22 H4           3.9690    -0.0080    -2.1360 ha         1 QC1       0.112500
     23 H5           5.9850     0.5100     0.8840 h1         1 QC1       0.003700
     24 H7           8.0330     0.4250    -0.2110 h4         1 QC1      -0.029900
     25 H8          11.2510    -2.1920    -0.0140 h4         1 QC1      -0.038900
     26 H9           9.9130    -4.0670     0.1730 ha         1 QC1       0.117000
     27 H10          5.9840     0.5100    -0.8850 h1         1 QC1       0.003700
     28 H11          5.4620    -2.1420    -0.0170 hn         1 QC1       0.382800
@<TRIPOS>BOND
     1     1     2 1   
     2     2     3 ar  
     3     2     5 ar  
     4     3     4 ar  
     5     3    19 1   
     6     4     7 ar  
     7     4    20 1   
     8     5     6 ar  
     9     5    21 1   
    10     6     7 ar  
    11     6    22 1   
    12     7     8 1   
    13     8     9 1   
    14     8    23 1   
    15     8    27 1   
    16     9    10 1   
    17     9    28 1   
    18    10    11 ar  
    19    10    15 ar  
    20    11    12 1   
    21    11    18 ar  
    22    12    13 1   
    23    12    14 1   
    24    15    16 ar  
    25    15    24 1   
    26    16    17 ar  
    27    17    18 ar  
    28    17    25 1   
    29    18    26 1   
@<TRIPOS>SUBSTRUCTURE
     1 QC1         1 TEMP              0 ****  ****    0 ROOT
