@<TRIPOS>MOLECULE
molecule
   28    29     1     0     0
SMALL
bcc


@<TRIPOS>ATOM
      1 F18          0.0000     0.0000     0.0000 f          1 QC1      -0.153900
      2 C15          1.3510     0.0000     0.0000 ca         1 QC1       0.123900
      3 C14          2.0440     0.0000     1.1990 ca         1 QC1      -0.173000
      4 C13          3.4260     0.0000     1.1980 ca         1 QC1      -0.082500
      5 C16          2.0440    -0.0050    -1.1990 ca         1 QC1      -0.173000
      6 C17          3.4260    -0.0060    -1.1980 ca         1 QC1      -0.082500
      7 C12          4.1160    -0.0000     0.0000 ca         1 QC1      -0.100300
      8 C11          5.6240    -0.0010    -0.0000 c3         1 QC1       0.279100
      9 N10          6.1130    -1.3810    -0.0010 nu         1 QC1      -0.815600
     10 C2           7.4770    -1.6350    -0.0000 ca         1 QC1       0.107300
     11 C1           7.9610    -2.9510     0.1120 ca         1 QC1      -0.151600
     12 C7           7.0340    -4.0940     0.2350 c          1 QC1       0.899200
     13 O9           7.5170    -5.3320     0.4560 o          1 QC1      -0.835300
     14 O8           5.8370    -3.9170     0.1350 o          1 QC1      -0.835300
     15 C3           8.3910    -0.5930    -0.1190 ca         1 QC1       0.287200
     16 N4           9.6860    -0.8290    -0.1200 nb         1 QC1      -0.686000
     17 C5          10.1780    -2.0490    -0.0110 ca         1 QC1       0.297200
     18 C6           9.3480    -3.1450     0.1070 ca         1 QC1      -0.157300
     19 H1           1.5030     0.0000     2.1370 ha         1 QC1       0.136500
     20 H2           3.9680     0.0020     2.1360 ha         1 QC1       0.142500
     21 H3           1.5030    -0.0090    -2.1380 ha         1 QC1       0.136500
     22 H4           3.9690    -0.0080    -2.1360 ha         1 QC1       0.142500
     23 H5           5.9850     0.5100     0.8840 h1         1 QC1       0.029200
     24 H7           8.0330     0.4250    -0.2110 h4         1 QC1      -0.004900
     25 H8          11.2510    -2.1920    -0.0140 h4         1 QC1      -0.005900
     26 H9           9.9130    -4.0670     0.1730 ha         1 QC1       0.144000
     27 H10          5.9840     0.5100    -0.8850 h1         1 QC1       0.029200
     28 H11          5.4620    -2.1420    -0.0170 hn         1 QC1       0.501800
@<TRIPOS>BOND
     1     3     4 ar
     2     3     2 ar
     3     4     7 ar
     4     1     2 1
     5     2     5 ar
     6     7     8 1
     7     7     6 ar
     8     8     9 1
     9     9    10 1
    10     5     6 ar
    11    15    10 ar
    12    15    16 ar
    13    10    11 ar
    14    14    12 1
    15    16    17 ar
    16    11    12 1
    17    11    18 ar
    18    12    13 1
    19    17    18 ar
    20     3    19 1
    21     4    20 1
    22     5    21 1
    23     6    22 1
    24     8    23 1
    25    15    24 1
    26    17    25 1
    27    18    26 1
    28     8    27 1
    29     9    28 1
@<TRIPOS>SUBSTRUCTURE
     1 QC1         1 TEMP              0 ****  ****    0 ROOT
