@<TRIPOS>MOLECULE
molecule
   31    33     1     0     0
SMALL
bcc


@<TRIPOS>ATOM
      1 O8           0.0000     0.0000     0.0000 o          1 QC2      -0.821300
      2 C7           1.2130     0.0000     0.0000 c          1 QC2       0.881200
      3 O9           1.8880     0.0000     1.1660 o          1 QC2      -0.821300
      4 C1           1.9530    -0.0050    -1.2830 ca         1 QC2      -0.064600
      5 C2           1.2740    -0.0050    -2.5030 ca         1 QC2      -0.200300
      6 C6           3.3530    -0.0050    -1.3050 ca         1 QC2      -0.219300
      7 C5           4.0050    -0.0100    -2.5230 ca         1 QC2       0.390200
      8 N4           3.3300    -0.0150    -3.6550 nb         1 QC2      -0.741000
      9 C3           2.0080    -0.0100    -3.6810 ca         1 QC2       0.479800
     10 N10          1.3430    -0.0100    -4.9110 na         1 QC2       0.067600
     11 N14          0.0700    -0.5370    -5.1610 nc         1 QC2      -0.482800
     12 C13         -0.2150    -0.3520    -6.4250 cc         1 QC2       0.318200
     13 C12          0.8570     0.3000    -7.0350 cc         1 QC2      -0.354300
     14 C11          1.8140     0.5110    -6.0830 cd         1 QC2      -0.002300
     15 C15          3.1220     1.1720    -6.2850 ca         1 QC2       0.002000
     16 C20          3.7610     1.0930    -7.5210 ca         1 QC2      -0.135000
     17 C19          4.9850     1.7150    -7.7040 ca         1 QC2       0.080100
     18 O21          5.6120     1.6410    -8.9090 oh         1 QC2      -0.527100
     19 C18          5.5730     2.4150    -6.6590 ca         1 QC2      -0.151000
     20 C17          4.9390     2.4930    -5.4320 ca         1 QC2      -0.129000
     21 C16          3.7180     1.8820    -5.2410 ca         1 QC2      -0.070000
     22 H2           0.1910    -0.0010    -2.5300 ha         1 QC2       0.176000
     23 H3           3.9170    -0.0010    -0.3810 ha         1 QC2       0.165000
     24 H4           5.0880    -0.0120    -2.5480 h4         1 QC2       0.008100
     25 H5          -1.1320    -0.6550    -6.9170 h4         1 QC2       0.039100
     26 H6           0.9180     0.5920    -8.0760 ha         1 QC2       0.145000
     27 H7           3.3450     0.4750    -8.3080 ha         1 QC2       0.141000
     28 H8           5.3350     2.3610    -9.4510 ho         1 QC2       0.408000
     29 H9           6.5310     2.8980    -6.8040 ha         1 QC2       0.128000
     30 H10          5.4010     3.0420    -4.6200 ha         1 QC2       0.131000
     31 H11          3.2240     1.9450    -4.2790 ha         1 QC2       0.159000
@<TRIPOS>BOND
     1    21    20 ar
     2    21    15 ar
     3    20    19 ar
     4    13    12 1
     5    13    14 2
     6    12    11 2
     7    14    15 1
     8    14    10 1
     9    15    16 ar
    10    19    17 ar
    11    11    10 1
    12    10     9 1
    13    16    17 ar
    14    17    18 1
    15     5     9 ar
    16     5     4 ar
    17     9     8 ar
    18     1     2 1
    19     8     7 ar
    20     4     2 1
    21     4     6 ar
    22     2     3 1
    23     7     6 ar
    24     5    22 1
    25     6    23 1
    26     7    24 1
    27    12    25 1
    28    13    26 1
    29    16    27 1
    30    18    28 1
    31    19    29 1
    32    20    30 1
    33    21    31 1
@<TRIPOS>SUBSTRUCTURE
     1 QC2         1 TEMP              0 ****  ****    0 ROOT
