@<TRIPOS>MOLECULE
molecule
   41    43     1     0     0
SMALL
bcc


@<TRIPOS>ATOM
      1 C1           0.0000     0.0000     0.0000 cc         1 QC5       0.453800
      2 C2           1.4130     0.0000     0.0000 cc         1 QC5      -0.268300
      3 C3           1.8230     0.0000     1.3000 cd         1 QC5      -0.082300
      4 N1           0.7210     0.0010     2.0780 na         1 QC5       0.076400
      5 C4           0.7060     0.0000     3.5430 c3         1 QC5       0.076300
      6 C5          -0.1270     1.1830     4.0440 c3         1 QC5       0.142800
      7 N2          -0.1430     1.1830     5.5130 n3         1 QC5      -0.737600
      8 C6          -0.7280     2.4260     6.0330 c3         1 QC5       0.149600
      9 C7          -0.8560     0.0090     6.0320 c3         1 QC5       0.149600
     10 N3          -0.4050     0.0010     1.2460 nd         1 QC5      -0.522800
     11 C8          -1.5820     0.4190    -3.1570 cc         1 QC5      -0.204500
     12 C9          -2.5170    -0.3920    -2.4820 cc         1 QC5      -0.204500
     13 C10         -2.0280    -0.6300    -1.2470 cd         1 QC5      -0.142300
     14 N4          -0.8250     0.0060    -1.1350 na         1 QC5      -0.061900
     15 C11         -0.5570     0.6470    -2.3100 cd         1 QC5      -0.142300
     16 C12          3.9290    -0.0020    -3.4300 ca         1 QC5       0.130900
     17 C13          4.1420     0.9190    -2.4170 ca         1 QC5      -0.167500
     18 C14          3.3290     0.9220    -1.3030 ca         1 QC5      -0.093500
     19 C15          2.2910    -0.0010    -1.1970 ca         1 QC5      -0.022000
     20 C16          2.0790    -0.9250    -2.2180 ca         1 QC5      -0.093500
     21 C17          2.8980    -0.9210    -3.3290 ca         1 QC5      -0.167500
     22 H3           2.8490    -0.0000     1.6470 h4         1 QC5       0.180000
     23 H41C         1.7200     0.0890     3.9150 h1         1 QC5       0.070200
     24 H42C         0.2700    -0.9250     3.9000 h1         1 QC5       0.070200
     25 H51C         0.3090     2.1090     3.6880 h1         1 QC5       0.054200
     26 H52C        -1.1400     1.0950     3.6720 h1         1 QC5       0.054200
     27 H61C        -0.6960     2.4150     7.1160 h1         1 QC5       0.036033
     28 H62C        -0.1620     3.2730     5.6630 h1         1 QC5       0.036033
     29 H63C        -1.7560     2.5070     5.7030 h1         1 QC5       0.036033
     30 H71C        -1.7020    -0.2120     5.3930 h1         1 QC5       0.036033
     31 H72C        -1.2060     0.2140     7.0370 h1         1 QC5       0.036033
     32 H73C        -0.1860    -0.8420     6.0500 h1         1 QC5       0.036033
     33 H8          -1.6710     0.7910    -4.1710 ha         1 QC5       0.150500
     34 H9          -3.4550    -0.7580    -2.8810 ha         1 QC5       0.150500
     35 H11          0.3250     1.2370    -2.5250 h4         1 QC5       0.174000
     36 H10         -2.5070    -1.2230    -0.4780 h4         1 QC5       0.174000
     37 H13          4.9500     1.6360    -2.4990 ha         1 QC5       0.146500
     38 H17          2.7350    -1.6400    -4.1240 ha         1 QC5       0.146500
     39 H14          3.4970     1.6430    -0.5110 ha         1 QC5       0.143500
     40 H16          1.2730    -1.6440    -2.1400 ha         1 QC5       0.143500
     41 F            4.7250     0.0010    -4.5220 f          1 QC5      -0.141900
@<TRIPOS>BOND
     1     1     2 1
     2     1    10 2
     3     1    14 1
     4     2     3 2
     5     2    19 1
     6     3     4 1
     7     4     5 1
     8     4    10 1
     9     5     6 1
    10     6     7 1
    11     7     8 1
    12     7     9 1
    13    11    12 1
    14    11    15 2
    15    12    13 2
    16    13    14 1
    17    14    15 1
    18    16    17 ar
    19    16    21 ar
    20    16    41 1
    21    17    18 ar
    22    18    19 ar
    23    19    20 ar
    24    20    21 ar
    25     3    22 1
    26     5    23 1
    27     5    24 1
    28     6    25 1
    29     6    26 1
    30     8    27 1
    31     8    28 1
    32     8    29 1
    33     9    30 1
    34     9    31 1
    35     9    32 1
    36    11    33 1
    37    12    34 1
    38    15    35 1
    39    13    36 1
    40    17    37 1
    41    21    38 1
    42    18    39 1
    43    20    40 1
@<TRIPOS>SUBSTRUCTURE
     1 QC5         1 TEMP              0 ****  ****    0 ROOT
