@<TRIPOS>MOLECULE
molecule
   72    75     1     0     0
SMALL
bcc


@<TRIPOS>ATOM
      1 C1           0.0000     0.0000     0.0000 ca         1 QCH      -0.155000
      2 C2           1.3840     0.0000     0.0000 ca         1 QCH      -0.133000
      3 C3          -0.6930     0.0010     1.1920 ca         1 QCH      -0.117000
      4 C4           2.0810     0.0000     1.1950 ca         1 QCH      -0.142000
      5 C5           3.7900    -3.5270     6.2840 ca         1 QCH      -0.154000
      6 C6           3.7280    -4.8110     6.8020 ca         1 QCH      -0.167000
      7 C7           0.0050     0.0010     2.4020 ca         1 QCH      -0.095600
      8 C8           1.4170    -3.2880     6.5840 ca         1 QCH      -0.040600
      9 C9           1.4000     0.0000     2.3950 ca         1 QCH      -0.011300
     10 C10          2.6470    -2.7650     6.1740 ca         1 QCH      -0.093300
     11 C11          2.5160    -5.3430     7.2140 ca         1 QCH       0.060100
     12 C12          1.3540    -4.5870     7.1060 ca         1 QCH       0.068100
     13 C13         -6.9720    -1.1770     5.0360 c3         1 QCH      -0.078400
     14 C14         -6.2100    -1.3030     3.7140 c3         1 QCH      -0.080900
     15 C15         -0.7310     0.0010     3.6840 c          1 QCH       0.659700
     16 C17          2.2600   -10.7350     8.9300 c          1 QCH       0.892600
     17 C19         -5.0750     0.1300     6.0020 c3         1 QCH      -0.072900
     18 C20         -4.7060    -1.3040     3.9900 c3         1 QCH      -0.072900
     19 C21          0.1890    -6.2380     8.3560 c3         1 QCH       0.099400
     20 C22         -4.3130     0.0030     4.6810 c3         1 QCH      -0.086700
     21 C24          2.1610    -0.0000     3.6950 c3         1 QCH       0.202100
     22 C25          2.7230    -1.3690     5.6120 c3         1 QCH       0.225100
     23 C26          2.9870    -2.2540     3.3740 c3         1 QCH       0.144100
     24 C28         -2.8080     0.0030     4.9570 c3         1 QCH       0.116000
     25 C29          1.2740    -8.4730     8.6830 c3         1 QCH      -0.057400
     26 N30         -2.0790     0.0020     3.6870 ns         1 QCH      -0.587900
     27 N31          2.2010    -1.3650     4.2390 n3         1 QCH      -0.668600
     28 O32         -0.5270    -2.5980     5.4950 o          1 QCH      -0.839800
     29 O33          1.6470   -10.7600     9.9710 o          1 QCH      -0.867300
     30 O34         -0.1210     0.0010     4.7350 o          1 QCH      -0.510100
     31 O35         -0.1310    -1.6020     7.4410 o          1 QCH      -0.839800
     32 O36          3.0070   -11.7890     8.5670 o          1 QCH      -0.867300
     33 O37          0.1560    -5.0920     7.4970 os         1 QCH      -0.298900
     34 O38          2.4810    -6.6040     7.7250 os         1 QCH      -0.324900
     35 C18         -6.5800     0.1300     5.7270 c3         1 QCH      -0.080900
     36 C23          1.1990    -7.2410     7.7800 c3         1 QCH       0.100100
     37 H1          -0.5400    -0.0000    -0.9390 ha         1 QCH       0.111000
     38 H2           1.9240    -0.0000    -0.9390 ha         1 QCH       0.110000
     39 H3          -1.7770     0.0010     1.1910 ha         1 QCH       0.120000
     40 H4           3.1640    -0.0000     1.1890 ha         1 QCH       0.125000
     41 H5           4.7420    -3.1200     5.9660 ha         1 QCH       0.101000
     42 H6           4.6320    -5.4020     6.8850 ha         1 QCH       0.120000
     43 H241         1.6690     0.6570     4.4020 h1         1 QCH       0.042700
     44 H242         3.1720     0.3490     3.5220 h1         1 QCH       0.042700
     45 H251         2.1310    -0.7000     6.2260 h1         1 QCH       0.040700
     46 H252         3.7540    -1.0370     5.6070 h1         1 QCH       0.040700
     47 H131        -8.0370    -1.1750     4.8380 hc         1 QCH       0.034700
     48 H132        -6.7200    -2.0130     5.6770 hc         1 QCH       0.034700
     49 H141        -6.4590    -0.4650     3.0740 hc         1 QCH       0.027950
     50 H142        -6.4870    -2.2310     3.2270 hc         1 QCH       0.027950
     51 H181        -6.8280     0.9660     5.0830 hc         1 QCH       0.027950
     52 H182        -7.1170     0.2170     6.6640 hc         1 QCH       0.027950
     53 H201        -4.1680    -1.3900     3.0530 hc         1 QCH       0.054450
     54 H202        -4.4580    -2.1400     4.6330 hc         1 QCH       0.054450
     55 H30         -2.5820     0.0340     2.8220 hn         1 QCH       0.287500
     56 H271         1.7860    -9.8050     7.0750 hc         1 QCH       0.036700
     57 H272         3.1790    -9.1060     7.9130 hc         1 QCH       0.036700
     58 H191        -4.8270    -0.7080     6.6430 hc         1 QCH       0.054450
     59 H192        -4.7980     1.0570     6.4890 hc         1 QCH       0.054450
     60 H22         -4.5670     0.8380     4.0400 hc         1 QCH       0.026700
     61 H211        -0.7930    -6.6920     8.3960 h1         1 QCH       0.055200
     62 H212         0.5000    -5.9380     9.3500 h1         1 QCH       0.055200
     63 H23          0.8940    -7.5310     6.7820 h1         1 QCH       0.050700
     64 H281        -2.5460    -0.8820     5.5250 h1         1 QCH       0.082700
     65 H282        -2.5450     0.8870     5.5240 h1         1 QCH       0.082700
     66 H261         3.1440    -3.2010     3.8760 h1         1 QCH       0.023700
     67 H262         2.4520    -2.4210     2.4470 h1         1 QCH       0.023700
     68 H263         3.9450    -1.7960     3.1600 h1         1 QCH       0.023700
     69 H291         0.2820    -8.8880     8.8110 hc         1 QCH       0.054200
     70 H292         1.6740    -8.1890     9.6490 hc         1 QCH       0.054200
     71 C27          2.1860    -9.5210     8.0410 c3         1 QCH      -0.180400
     72 C16          0.1920    -2.4770     6.4670 c          1 QCH       0.908200
@<TRIPOS>BOND
     1     1     2 ar
     2     1     3 ar
     3     2     4 ar
     4     3     7 ar
     5     4     9 ar
     6     5     6 ar
     7     5    10 ar
     8     6    11 ar
     9     7     9 ar
    10     7    15 1
    11     8    10 ar
    12     8    12 ar
    13     8    72 1
    14     9    21 1
    15    10    22 1
    16    11    12 ar
    17    11    34 1
    18    12    33 1
    19    13    14 1
    20    13    35 1
    21    14    18 1
    22    15    26 1
    23    15    30 2
    24    72    28 1
    25    72    31 1
    26    16    71 1
    27    16    29 1
    28    16    32 1
    29    17    20 1
    30    17    35 1
    31    18    20 1
    32    19    33 1
    33    19    36 1
    34    20    24 1
    35    21    27 1
    36    22    27 1
    37    23    27 1
    38    71    25 1
    39    24    26 1
    40    25    36 1
    41    34    36 1
    42     1    37 1
    43     2    38 1
    44     3    39 1
    45     4    40 1
    46     5    41 1
    47     6    42 1
    48    21    43 1
    49    21    44 1
    50    22    45 1
    51    22    46 1
    52    13    47 1
    53    13    48 1
    54    14    49 1
    55    14    50 1
    56    35    51 1
    57    35    52 1
    58    18    53 1
    59    18    54 1
    60    26    55 1
    61    71    56 1
    62    71    57 1
    63    17    58 1
    64    17    59 1
    65    20    60 1
    66    19    61 1
    67    19    62 1
    68    36    63 1
    69    24    64 1
    70    24    65 1
    71    23    66 1
    72    23    67 1
    73    23    68 1
    74    25    69 1
    75    25    70 1
@<TRIPOS>SUBSTRUCTURE
     1 QCH         1 TEMP              0 ****  ****    0 ROOT
