@<TRIPOS>MOLECULE
QCH
   72    75     1     0     0
SMALL
bcc


@<TRIPOS>ATOM
      1 C1           0.0000     0.0000     0.0000 ca         1 QCH      -0.131000
      2 C2           1.3840     0.0000     0.0000 ca         1 QCH      -0.109000
      3 C3          -0.6930     0.0010     1.1920 ca         1 QCH      -0.099000
      4 C4           2.0810     0.0000     1.1950 ca         1 QCH      -0.121000
      5 C5           3.7900    -3.5270     6.2840 ca         1 QCH      -0.137000
      6 C6           3.7280    -4.8110     6.8020 ca         1 QCH      -0.152000
      7 C7           0.0050     0.0010     2.4020 ca         1 QCH      -0.097600
      8 C8           1.4170    -3.2880     6.5840 ca         1 QCH      -0.042600
      9 C9           1.4000     0.0000     2.3950 ca         1 QCH      -0.008300
     10 C10          2.6470    -2.7650     6.1740 ca         1 QCH      -0.095300
     11 C11          2.5160    -5.3430     7.2140 ca         1 QCH       0.060100
     12 C12          1.3540    -4.5870     7.1060 ca         1 QCH       0.078100
     13 C13         -6.9720    -1.1770     5.0360 c3         1 QCH      -0.024400
     14 C14         -6.2100    -1.3030     3.7140 c3         1 QCH      -0.024900
     15 C15         -0.7310     0.0010     3.6840 c          1 QCH       0.571700
     16 C17          2.2600   -10.7350     8.9300 c          1 QCH       0.983600
     17 C19         -5.0750     0.1300     6.0020 c3         1 QCH      -0.024900
     18 C20         -4.7060    -1.3040     3.9900 c3         1 QCH      -0.024900
     19 C21          0.1890    -6.2380     8.3560 c3         1 QCH       0.160400
     20 C22         -4.3130     0.0030     4.6810 c3         1 QCH      -0.061700
     21 C24          2.1610    -0.0000     3.6950 c3         1 QCH       0.174100
     22 C25          2.7230    -1.3690     5.6120 c3         1 QCH       0.208100
     23 C26          2.9870    -2.2540     3.3740 c3         1 QCH       0.148100
     24 C28         -2.8080     0.0030     4.9570 c3         1 QCH       0.036000
     25 C29          1.2740    -8.4730     8.6830 c3         1 QCH      -0.015400
     26 N30         -2.0790     0.0020     3.6870 ns         1 QCH      -0.209900
     27 N31          2.2010    -1.3650     4.2390 n3         1 QCH      -0.466600
     28 O32         -0.5270    -2.5980     5.4950 o          1 QCH      -0.892300
     29 O33          1.6470   -10.7600     9.9710 o          1 QCH      -0.916300
     30 O34         -0.1210     0.0010     4.7350 o          1 QCH      -0.541100
     31 O35         -0.1310    -1.6020     7.4410 o          1 QCH      -0.892300
     32 O36          3.0070   -11.7890     8.5670 o          1 QCH      -0.916300
     33 O37          0.1560    -5.0920     7.4970 os         1 QCH      -0.272900
     34 O38          2.4810    -6.6040     7.7250 os         1 QCH      -0.296900
     35 C18         -6.5800     0.1300     5.7270 c3         1 QCH      -0.024900
     36 C23          1.1990    -7.2410     7.7800 c3         1 QCH       0.126100
     37 H1          -0.5400    -0.0000    -0.9390 ha         1 QCH       0.088000
     38 H2           1.9240    -0.0000    -0.9390 ha         1 QCH       0.086000
     39 H3          -1.7770     0.0010     1.1910 ha         1 QCH       0.099000
     40 H4           3.1640    -0.0000     1.1890 ha         1 QCH       0.101000
     41 H5           4.7420    -3.1200     5.9660 ha         1 QCH       0.083000
     42 H6           4.6320    -5.4020     6.8850 ha         1 QCH       0.099000
     43 H241         1.6690     0.6570     4.4020 h1         1 QCH       0.023700
     44 H242         3.1720     0.3490     3.5220 h1         1 QCH       0.023700
     45 H251         2.1310    -0.7000     6.2260 h1         1 QCH       0.016700
     46 H252         3.7540    -1.0370     5.6070 h1         1 QCH       0.016700
     47 H131        -8.0370    -1.1750     4.8380 hc         1 QCH       0.008200
     48 H132        -6.7200    -2.0130     5.6770 hc         1 QCH       0.008200
     49 H141        -6.4590    -0.4650     3.0740 hc         1 QCH       0.002200
     50 H142        -6.4870    -2.2310     3.2270 hc         1 QCH       0.002200
     51 H181        -6.8280     0.9660     5.0830 hc         1 QCH       0.002200
     52 H182        -7.1170     0.2170     6.6640 hc         1 QCH       0.002200
     53 H201        -4.1680    -1.3900     3.0530 hc         1 QCH       0.028200
     54 H202        -4.4580    -2.1400     4.6330 hc         1 QCH       0.028200
     55 H30         -2.5820     0.0340     2.8220 hn         1 QCH       0.156500
     56 H271         1.7860    -9.8050     7.0750 hc         1 QCH       0.012200
     57 H272         3.1790    -9.1060     7.9130 hc         1 QCH       0.012200
     58 H191        -4.8270    -0.7080     6.6430 hc         1 QCH       0.028200
     59 H192        -4.7980     1.0570     6.4890 hc         1 QCH       0.028200
     60 H22         -4.5670     0.8380     4.0400 hc         1 QCH       0.006700
     61 H211        -0.7930    -6.6920     8.3960 h1         1 QCH       0.016700
     62 H212         0.5000    -5.9380     9.3500 h1         1 QCH       0.016700
     63 H23          0.8940    -7.5310     6.7820 h1         1 QCH       0.021700
     64 H281        -2.5460    -0.8820     5.5250 h1         1 QCH       0.060200
     65 H282        -2.5450     0.8870     5.5240 h1         1 QCH       0.060200
     66 H261         3.1440    -3.2010     3.8760 h1         1 QCH      -0.001300
     67 H262         2.4520    -2.4210     2.4470 h1         1 QCH      -0.001300
     68 H263         3.9450    -1.7960     3.1600 h1         1 QCH      -0.001300
     69 H291         0.2820    -8.8880     8.8110 hc         1 QCH       0.027200
     70 H292         1.6740    -8.1890     9.6490 hc         1 QCH       0.027200
     71 C27          2.1860    -9.5210     8.0410 c3         1 QCH      -0.134400
     72 C16          0.1920    -2.4770     6.4670 c          1 QCH       1.000200
@<TRIPOS>BOND
     1     1     2 ar  
     2     1     3 ar  
     3     1    37 1   
     4     2     4 ar  
     5     2    38 1   
     6     3     7 ar  
     7     3    39 1   
     8     4     9 ar  
     9     4    40 1   
    10     5     6 ar  
    11     5    10 ar  
    12     5    41 1   
    13     6    11 ar  
    14     6    42 1   
    15     7     9 ar  
    16     7    15 1   
    17     8    10 ar  
    18     8    12 ar  
    19     8    72 1   
    20     9    21 1   
    21    10    22 1   
    22    11    12 ar  
    23    11    34 1   
    24    12    33 1   
    25    13    14 1   
    26    13    35 1   
    27    13    47 1   
    28    13    48 1   
    29    14    18 1   
    30    14    49 1   
    31    14    50 1   
    32    15    26 1   
    33    15    30 2   
    34    16    29 1   
    35    16    32 1   
    36    16    71 1   
    37    17    20 1   
    38    17    35 1   
    39    17    58 1   
    40    17    59 1   
    41    18    20 1   
    42    18    53 1   
    43    18    54 1   
    44    19    33 1   
    45    19    36 1   
    46    19    61 1   
    47    19    62 1   
    48    20    24 1   
    49    20    60 1   
    50    21    27 1   
    51    21    43 1   
    52    21    44 1   
    53    22    27 1   
    54    22    45 1   
    55    22    46 1   
    56    23    27 1   
    57    23    66 1   
    58    23    67 1   
    59    23    68 1   
    60    24    26 1   
    61    24    64 1   
    62    24    65 1   
    63    25    36 1   
    64    25    69 1   
    65    25    70 1   
    66    25    71 1   
    67    26    55 1   
    68    28    72 1   
    69    31    72 1   
    70    34    36 1   
    71    35    51 1   
    72    35    52 1   
    73    36    63 1   
    74    56    71 1   
    75    57    71 1   
@<TRIPOS>SUBSTRUCTURE
     1 QCH         1 TEMP              0 ****  ****    0 ROOT
