@<TRIPOS>MOLECULE
molecule
   40    41     1     0     0
SMALL
bcc


@<TRIPOS>ATOM
      1 CZ1          0.0000     0.0000     0.0000 c3         1 QCL      -0.095600
      2 CE1          1.5300     0.0000     0.0000 c3         1 QCL      -0.081900
      3 CD           2.0400     0.0000     1.4430 c3         1 QCL      -0.069700
      4 CE2          1.6550    -1.3160     2.1210 c3         1 QCL      -0.081900
      5 CZ2          2.0420    -1.2610     3.5990 c3         1 QCL      -0.095600
      6 CG           3.5620     0.1490     1.4450 c3         1 QCL       0.137400
      7 OB           3.9170     1.4300     0.9190 os         1 QCL      -0.319900
      8 C8           5.2390     1.7230     0.8510 ca         1 QCL       0.181100
      9 C9           6.1910     0.8170     1.2760 ca         1 QCL      -0.339300
     10 C10          7.5510     1.1510     1.1930 ca         1 QCL       0.365800
     11 C            8.5620     0.1770     1.6490 c          1 QCL       0.468400
     12 O            9.7410     0.4530     1.5830 o          1 QCL      -0.485100
     13 N11          7.9470     2.3180     0.7160 nb         1 QCL      -0.641000
     14 C7           7.0760     3.2300     0.2910 ca         1 QCL       0.407600
     15 C6           5.6840     2.9640     0.3390 ca         1 QCL      -0.143300
     16 C5           4.7750     3.9310    -0.1110 ca         1 QCL      -0.120000
     17 C4           5.2300     5.1220    -0.5930 ca         1 QCL      -0.112000
     18 C3           6.5920     5.4000    -0.6460 ca         1 QCL      -0.157000
     19 C2           7.5190     4.4750    -0.2170 ca         1 QCL       0.141300
     20 N            8.8800     4.7660    -0.2770 nv         1 QCL      -0.952200
     21 H1          -0.3610     0.5810     0.8400 hc         1 QCL       0.035367
     22 H2          -0.3610     0.4370    -0.9230 hc         1 QCL       0.035367
     23 H3          -0.3610    -1.0180     0.0830 hc         1 QCL       0.035367
     24 H4           1.8910    -0.8840    -0.5110 hc         1 QCL       0.048950
     25 H5           1.8910     0.8850    -0.5110 hc         1 QCL       0.048950
     26 H6           1.5950     0.8270     1.9830 hc         1 QCL       0.066700
     27 H7           2.1770    -2.1350     1.6410 hc         1 QCL       0.048950
     28 H8           0.5860    -1.4680     2.0330 hc         1 QCL       0.048950
     29 H9           3.0650    -1.5970     3.7170 hc         1 QCL       0.035367
     30 H10          1.9530    -0.2430     3.9580 hc         1 QCL       0.035367
     31 H11          1.3830    -1.9040     4.1690 hc         1 QCL       0.035367
     32 H12          4.0020    -0.6280     0.8320 h1         1 QCL       0.041200
     33 H13          3.9320     0.0610     2.4600 h1         1 QCL       0.041200
     34 H14          5.8870    -0.0940     1.7760 ha         1 QCL       0.141000
     35 H15          8.2490    -0.7640     2.0850 h4         1 QCL       0.004200
     36 H16          3.7100     3.7310    -0.0770 ha         1 QCL       0.145000
     37 H17          4.5200     5.8650    -0.9350 ha         1 QCL       0.132000
     38 H18          6.9280     6.3540    -1.0330 ha         1 QCL       0.139000
     39 H19          9.4790     4.2340    -0.8770 hn         1 QCL       0.436300
     40 H20          9.2580     5.5080     0.2770 hn         1 QCL       0.436300
@<TRIPOS>BOND
     1    17    18 ar
     2    17    16 ar
     3    18    19 ar
     4    16    15 ar
     5    19    20 1
     6    19    14 ar
     7    15    14 ar
     8    15     8 ar
     9    14    13 ar
    10     5     4 1
    11     7     8 1
    12     7     6 1
    13    13    10 ar
    14     8     9 ar
    15    10     9 ar
    16    10    11 1
    17     3     6 1
    18     3     4 1
    19     3     2 1
    20    11    12 2
    21     2     1 1
    22     1    21 1
    23     1    22 1
    24     1    23 1
    25     2    24 1
    26     2    25 1
    27     3    26 1
    28     4    27 1
    29     4    28 1
    30     5    29 1
    31     5    30 1
    32     5    31 1
    33     6    32 1
    34     6    33 1
    35     9    34 1
    36    11    35 1
    37    16    36 1
    38    17    37 1
    39    18    38 1
    40    20    39 1
    41    20    40 1
@<TRIPOS>SUBSTRUCTURE
     1 QCL         1 TEMP              0 ****  ****    0 ROOT
