@<TRIPOS>MOLECULE
QCL
   40    41     1     0     0
SMALL
bcc


@<TRIPOS>ATOM
      1 CZ1          0.0000     0.0000     0.0000 c3         1 QCL      -0.000100
      2 CE1          1.5300     0.0000     0.0000 c3         1 QCL      -0.029900
      3 CD           2.0400     0.0000     1.4430 c3         1 QCL      -0.057700
      4 CE2          1.6550    -1.3160     2.1210 c3         1 QCL      -0.029900
      5 CZ2          2.0420    -1.2610     3.5990 c3         1 QCL      -0.000100
      6 CG           3.5620     0.1490     1.4450 c3         1 QCL       0.195400
      7 OB           3.9170     1.4300     0.9190 os         1 QCL      -0.293900
      8 C8           5.2390     1.7230     0.8510 ca         1 QCL       0.185100
      9 C9           6.1910     0.8170     1.2760 ca         1 QCL      -0.317300
     10 C10          7.5510     1.1510     1.1930 ca         1 QCL       0.297800
     11 C            8.5620     0.1770     1.6490 c          1 QCL       0.549400
     12 O            9.7410     0.4530     1.5830 o          1 QCL      -0.526100
     13 N11          7.9470     2.3180     0.7160 nb         1 QCL      -0.517000
     14 C7           7.0760     3.2300     0.2910 ca         1 QCL       0.357600
     15 C6           5.6840     2.9640     0.3390 ca         1 QCL      -0.137300
     16 C5           4.7750     3.9310    -0.1110 ca         1 QCL      -0.098000
     17 C4           5.2300     5.1220    -0.5930 ca         1 QCL      -0.077000
     18 C3           6.5920     5.4000    -0.6460 ca         1 QCL      -0.134000
     19 C2           7.5190     4.4750    -0.2170 ca         1 QCL      -0.003700
     20 N            8.8800     4.7660    -0.2770 nv         1 QCL      -0.499200
     21 H1          -0.3610     0.5810     0.8400 hc         1 QCL       0.003700
     22 H2          -0.3610     0.4370    -0.9230 hc         1 QCL       0.003700
     23 H3          -0.3610    -1.0180     0.0830 hc         1 QCL       0.003700
     24 H4           1.8910    -0.8840    -0.5110 hc         1 QCL       0.020950
     25 H5           1.8910     0.8850    -0.5110 hc         1 QCL       0.020950
     26 H6           1.5950     0.8270     1.9830 hc         1 QCL       0.042700
     27 H7           2.1770    -2.1350     1.6410 hc         1 QCL       0.020950
     28 H8           0.5860    -1.4680     2.0330 hc         1 QCL       0.020950
     29 H9           3.0650    -1.5970     3.7170 hc         1 QCL       0.003700
     30 H10          1.9530    -0.2430     3.9580 hc         1 QCL       0.003700
     31 H11          1.3830    -1.9040     4.1690 hc         1 QCL       0.003700
     32 H12          4.0020    -0.6280     0.8320 h1         1 QCL       0.009200
     33 H13          3.9320     0.0610     2.4600 h1         1 QCL       0.009200
     34 H14          5.8870    -0.0940     1.7760 ha         1 QCL       0.129000
     35 H15          8.2490    -0.7640     2.0850 h4         1 QCL      -0.040800
     36 H16          3.7100     3.7310    -0.0770 ha         1 QCL       0.117000
     37 H17          4.5200     5.8650    -0.9350 ha         1 QCL       0.102000
     38 H18          6.9280     6.3540    -1.0330 ha         1 QCL       0.110000
     39 H19          9.4790     4.2340    -0.8770 hn         1 QCL       0.275300
     40 H20          9.2580     5.5080     0.2770 hn         1 QCL       0.275300
@<TRIPOS>BOND
     1     1     2 1   
     2     1    21 1   
     3     1    22 1   
     4     1    23 1   
     5     2     3 1   
     6     2    24 1   
     7     2    25 1   
     8     3     4 1   
     9     3     6 1   
    10     3    26 1   
    11     4     5 1   
    12     4    27 1   
    13     4    28 1   
    14     5    29 1   
    15     5    30 1   
    16     5    31 1   
    17     6     7 1   
    18     6    32 1   
    19     6    33 1   
    20     7     8 1   
    21     8     9 ar  
    22     8    15 ar  
    23     9    10 ar  
    24     9    34 1   
    25    10    11 1   
    26    10    13 ar  
    27    11    12 2   
    28    11    35 1   
    29    13    14 ar  
    30    14    15 ar  
    31    14    19 ar  
    32    15    16 ar  
    33    16    17 ar  
    34    16    36 1   
    35    17    18 ar  
    36    17    37 1   
    37    18    19 ar  
    38    18    38 1   
    39    19    20 1   
    40    20    39 1   
    41    20    40 1   
@<TRIPOS>SUBSTRUCTURE
     1 QCL         1 TEMP              0 ****  ****    0 ROOT
