@<TRIPOS>MOLECULE
QCT
   52    55     1     0     0
SMALL
bcc


@<TRIPOS>ATOM
      1 O10        -0.2230    0.1080    0.7920 oh        1 QCT     -0.597800
      2 C23         1.1350    0.0230    0.4130 c3        1 QCT      0.112100
      3 C22         2.0730    0.0990    1.6240 c3        1 QCT      0.096100
      4 O9          1.5810   -0.8220    2.5840 oh        1 QCT     -0.603800
      5 C24         1.3860   -1.2720   -0.3760 c3        1 QCT      0.085100
      6 O11         0.5980   -1.3080   -1.5530 oh        1 QCT     -0.595800
      7 C25         2.8610   -1.3290   -0.8000 c3        1 QCT      0.146100
      8 C26         3.1770   -2.6090   -1.5470 c3        1 QCT     -0.087100
      9 O8          3.6950   -1.3350    0.3660 os        1 QCT     -0.418600
     10 C21         3.5260   -0.2620    1.2530 c3        1 QCT      0.303900
     11 O7          4.0630    0.8860    0.5800 os        1 QCT     -0.348900
     12 C3          5.4040    1.1400    0.8110 cc        1 QCT     -0.067100
     13 C4          5.8380    1.3690    2.2030 c         1 QCT      0.595900
     14 O2          5.0630    1.2530    3.1630 o         1 QCT     -0.541100
     15 C2          6.2440    1.2790   -0.2530 cd        1 QCT      0.172900
     16 C11         5.9230    1.1240   -1.6720 ca        1 QCT     -0.062800
     17 C12         4.6630    1.5080   -2.1470 ca        1 QCT     -0.092000
     18 C13         4.3660    1.3610   -3.5080 ca        1 QCT      0.101100
     19 O5          3.1210    1.7660   -3.9250 oh        1 QCT     -0.489100
     20 C14         5.3350    0.8280   -4.3860 ca        1 QCT      0.061100
     21 O6          4.9620    0.7170   -5.7080 oh        1 QCT     -0.511100
     22 C15         6.5910    0.4480   -3.9030 ca        1 QCT     -0.181000
     23 C16         6.8830    0.6010   -2.5520 ca        1 QCT     -0.088000
     24 O1          7.5780    1.6410   -0.0980 os        1 QCT     -0.213200
     25 C9          8.0540    1.8520    1.1800 ca        1 QCT      0.214100
     26 C8          9.4110    2.2010    1.2380 ca        1 QCT     -0.232000
     27 C7          9.9720    2.4400    2.4980 ca        1 QCT      0.222100
     28 O4         11.3000    2.7780    2.5160 oh        1 QCT     -0.483100
     29 C6          9.2110    2.3380    3.6740 ca        1 QCT     -0.350000
     30 C5          7.8590    1.9870    3.5800 ca        1 QCT      0.251100
     31 C10         7.2480    1.7350    2.3270 ca        1 QCT     -0.280600
     32 O3          7.0690    1.8690    4.6880 oh        1 QCT     -0.450100
     33 H101       -0.3720   -0.5450    1.4900 ho        1 QCT      0.421000
     34 H23         1.3090    0.9180   -0.2490 h1        1 QCT      0.100700
     35 H22         2.0610    1.1430    2.0470 h1        1 QCT      0.078700
     36 HO91        2.0740   -0.6680    3.4000 ho        1 QCT      0.421000
     37 H24         1.1330   -2.1600    0.2700 h1        1 QCT      0.059700
     38 HO11       -0.2760   -0.9720   -1.3090 ho        1 QCT      0.418000
     39 H25         3.1110   -0.4250   -1.4230 h1        1 QCT      0.065700
     40 H262        2.4930   -2.6860   -2.4260 hc        1 QCT      0.050033
     41 H263        4.2370   -2.5990   -1.8940 hc        1 QCT      0.050033
     42 H261        3.0260   -3.4940   -0.8850 hc        1 QCT      0.050033
     43 H21         4.1170   -0.5500    2.1690 h2        1 QCT      0.106700
     44 H12         3.9000    1.9210   -1.4680 ha        1 QCT      0.176000
     45 HO51        3.0310    1.5390   -4.8640 ho        1 QCT      0.439000
     46 HO61        5.6940    0.3080   -6.1910 ho        1 QCT      0.432000
     47 H15         7.3420    0.0330   -4.5900 ha        1 QCT      0.140000
     48 H16         7.8730    0.3110   -2.1670 ha        1 QCT      0.149000
     49 H8         10.0130    2.2870    0.3240 ha        1 QCT      0.176000
     50 HO4        11.5660    2.9210    3.4370 ho        1 QCT      0.428000
     51 H6          9.6700    2.5300    4.6520 ha        1 QCT      0.145000
     52 HO3         7.6060    2.0750    5.4690 ho        1 QCT      0.424000
@<TRIPOS>BOND
     1    1    2 1   
     2    1   33 1   
     3    2    3 1   
     4    2    5 1   
     5    2   34 1   
     6    3    4 1   
     7    3   10 1   
     8    3   35 1   
     9    4   36 1   
    10    5    6 1   
    11    5    7 1   
    12    5   37 1   
    13    6   38 1   
    14    7    8 1   
    15    7    9 1   
    16    7   39 1   
    17    8   40 1   
    18    8   41 1   
    19    8   42 1   
    20    9   10 1   
    21   10   11 1   
    22   10   43 1   
    23   11   12 1   
    24   12   13 1   
    25   12   15 2   
    26   13   14 2   
    27   13   31 1   
    28   15   16 1   
    29   15   24 1   
    30   16   17 ar  
    31   16   23 ar  
    32   17   18 ar  
    33   17   44 1   
    34   18   19 1   
    35   18   20 ar  
    36   19   45 1   
    37   20   21 1   
    38   20   22 ar  
    39   21   46 1   
    40   22   23 ar  
    41   22   47 1   
    42   23   48 1   
    43   24   25 1   
    44   25   26 ar  
    45   25   31 ar  
    46   26   27 ar  
    47   26   49 1   
    48   27   28 1   
    49   27   29 ar  
    50   28   50 1   
    51   29   30 ar  
    52   29   51 1   
    53   30   31 ar  
    54   30   32 1   
    55   32   52 1   
@<TRIPOS>SUBSTRUCTURE
     1 QCT         1 TEMP              0 ****  ****    0 ROOT
