@<TRIPOS>MOLECULE
molecule
   52    55     1     0     0
SMALL
bcc


@<TRIPOS>ATOM
      1 O10          0.0000     0.0000     0.0000 oh         1 QCT      -0.596800
      2 C23          1.4290     0.0000     0.0000 c3         1 QCT       0.125100
      3 C22          1.9420     0.0000     1.4430 c3         1 QCT       0.119100
      4 O9           1.4100    -1.1290     2.1390 oh         1 QCT      -0.574800
      5 C24          1.9410    -1.2550    -0.7120 c3         1 QCT       0.119100
      6 O11          1.5290    -1.2300    -2.0800 oh         1 QCT      -0.597800
      7 C25          3.4700    -1.2860    -0.6380 c3         1 QCT       0.131100
      8 C26          3.9870    -2.5680    -1.2950 c3         1 QCT      -0.080100
      9 O8           3.8810    -1.2540     0.7300 os         1 QCT      -0.413600
     10 C21          3.4710    -0.0800     1.4340 c3         1 QCT       0.313900
     11 O7           4.0030     1.0770     0.7850 os         1 QCT      -0.340900
     12 C3           5.3330     1.3160     0.9440 cc         1 QCT      -0.073100
     13 C4           5.8660     1.5650     2.2350 c          1 QCT       0.572900
     14 O2           5.1520     1.5690     3.2260 o          1 QCT      -0.526100
     15 C2           6.1660     1.3140    -0.1360 cd         1 QCT       0.174900
     16 C11          5.5970     1.0480    -1.4700 ca         1 QCT      -0.064800
     17 C12          4.4500     1.7290    -1.8910 ca         1 QCT      -0.105000
     18 C13          3.9220     1.4770    -3.1420 ca         1 QCT       0.088100
     19 O5           2.8070     2.1370    -3.5540 oh         1 QCT      -0.494100
     20 C14          4.5320     0.5470    -3.9820 ca         1 QCT       0.120100
     21 O6           4.0110     0.3000    -5.2130 oh         1 QCT      -0.497100
     22 C15          5.6710    -0.1290    -3.5650 ca         1 QCT      -0.167000
     23 C16          6.2050     0.1200    -2.3190 ca         1 QCT      -0.086000
     24 O1           7.4850     1.5440    -0.0290 os         1 QCT      -0.198200
     25 C9           8.0810     1.7950     1.1560 ca         1 QCT       0.202100
     26 C8           9.4450     2.0280     1.2280 ca         1 QCT      -0.221000
     27 C7          10.0420     2.2840     2.4530 ca         1 QCT       0.200100
     28 O4          11.3790     2.5120     2.5160 oh         1 QCT      -0.516100
     29 C6           9.2840     2.3100     3.6190 ca         1 QCT      -0.283000
     30 C5           7.9220     2.0790     3.5680 ca         1 QCT       0.234100
     31 C10          7.3130     1.8150     2.3350 ca         1 QCT      -0.267600
     32 O3           7.1810     2.1040     4.7050 oh         1 QCT      -0.458100
     33 H101        -0.3140     0.8390    -0.2920 ho         1 QCT       0.403000
     34 H23          1.7960     0.8810    -0.5130 h1         1 QCT       0.063700
     35 H22          1.6320     0.9140     1.9360 h1         1 QCT       0.052700
     36 HO91         1.0930    -0.8570     2.9850 ho         1 QCT       0.406000
     37 H24          1.5390    -2.1350    -0.2250 h1         1 QCT       0.068700
     38 HO11         0.7910    -1.8050    -2.1970 ho         1 QCT       0.409000
     39 H25          3.8720    -0.4230    -1.1540 h1         1 QCT       0.060700
     40 H262         3.5180    -3.4270    -0.8300 hc         1 QCT       0.046367
     41 H263         3.7470    -2.5540    -2.3520 hc         1 QCT       0.046367
     42 H261         5.0610    -2.6310    -1.1700 hc         1 QCT       0.046367
     43 H21          3.8340    -0.1270     2.4540 h2         1 QCT       0.107700
     44 H12          4.0410     2.5260    -1.2820 ha         1 QCT       0.157000
     45 HO51         3.0300     3.0290    -3.7650 ho         1 QCT       0.414000
     46 HO61         4.5850     0.6530    -5.8730 ho         1 QCT       0.418000
     47 H15          6.1420    -0.8500    -4.2210 ha         1 QCT       0.148000
     48 H16          7.0940    -0.4080    -1.9960 ha         1 QCT       0.147000
     49 H8          10.0480     1.9960     0.3290 ha         1 QCT       0.161000
     50 HO4         11.5460     3.4340     2.4060 ho         1 QCT       0.430000
     51 H6           9.7630     2.5100     4.5700 ha         1 QCT       0.152000
     52 HO3          7.5790     2.6900     5.3270 ho         1 QCT       0.425000
@<TRIPOS>BOND
     1     4     3 1
     2     1     2 1
     3     3     2 1
     4     3    10 1
     5     2     5 1
     6     5     6 1
     7     5     7 1
     8    10     9 1
     9    10    11 1
    10     9     7 1
    11    11    12 1
    12     7     8 1
    13    14    13 2
    14    19    18 1
    15    13    12 1
    16    13    31 1
    17    12    15 2
    18    32    30 1
    19    17    18 ar
    20    17    16 ar
    21    18    20 ar
    22    15    16 1
    23    15    24 1
    24    31    30 ar
    25    31    25 ar
    26    16    23 ar
    27    30    29 ar
    28    20    21 1
    29    20    22 ar
    30    24    25 1
    31    25    26 ar
    32    23    22 ar
    33    29    27 ar
    34    26    27 ar
    35    27    28 1
    36     1    33 1
    37     2    34 1
    38     3    35 1
    39     4    36 1
    40     5    37 1
    41     6    38 1
    42     7    39 1
    43     8    40 1
    44     8    41 1
    45     8    42 1
    46    10    43 1
    47    17    44 1
    48    19    45 1
    49    21    46 1
    50    22    47 1
    51    23    48 1
    52    26    49 1
    53    28    50 1
    54    29    51 1
    55    32    52 1
@<TRIPOS>SUBSTRUCTURE
     1 QCT         1 TEMP              0 ****  ****    0 ROOT
