@<TRIPOS>MOLECULE
QD0
   37    38     1     0     0
SMALL
bcc


@<TRIPOS>ATOM
      1 C01         0.2680    0.1300    0.6550 c3        1 QD0     -0.140400
      2 C02         1.6900    0.3370    0.3320 cc        1 QD0      0.325600
      3 N03         2.6460    0.8180    1.1550 nd        1 QD0     -0.329300
      4 O04         3.7980    0.8420    0.5220 os        1 QD0     -0.103100
      5 C05         3.6310    0.3610   -0.8020 cd        1 QD0      0.215000
      6 C06         4.8340    0.2830   -1.6350 c3        1 QD0     -0.165700
      7 C07         5.3610    1.6500   -2.0170 c         1 QD0      0.675100
      8 N08         6.3130    1.7560   -3.0420 n         1 QD0     -0.478800
      9 C09         7.1830    2.9220   -3.0890 c3        1 QD0      0.042700
     10 C10         6.6000    4.0680   -3.9310 c         1 QD0      0.528100
     11 N11         5.2120    4.5150   -3.5400 n4        1 QD0     -0.671800
     12 C12         4.8340    5.8370   -4.0800 c3        1 QD0      0.081100
     13 O13         7.1500    4.6800   -4.8310 o         1 QD0     -0.405100
     14 C14         8.5480    2.4870   -3.6670 c3        1 QD0     -0.127400
     15 C15         8.4520    0.9700   -3.8990 c3        1 QD0      0.135100
     16 C17         6.9800    0.5880   -3.6020 c3        1 QD0      0.063000
     17 O18         4.9480    2.7120   -1.5060 o         1 QD0     -0.625100
     18 C19         2.3040    0.0290   -0.9650 cc        1 QD0     -0.320600
     19 O16         9.2400    0.2620   -2.9650 oh        1 QD0     -0.586800
     20 H011       -0.3670    0.4840   -0.1940 hc        1 QD0      0.067700
     21 H012       -0.0330    0.6780    1.5830 hc        1 QD0      0.067700
     22 H013        0.0770   -0.9630    0.8140 hc        1 QD0      0.067700
     23 H19         1.7910   -0.3820   -1.8280 ha        1 QD0      0.179000
     24 H061        5.6510   -0.2460   -1.0600 hc        1 QD0      0.110200
     25 H062        4.6040   -0.3180   -2.5580 hc        1 QD0      0.110200
     26 H09         7.3180    3.3580   -2.0490 h1        1 QD0      0.116700
     27 H171        6.9590   -0.2850   -2.8910 h1        1 QD0      0.086700
     28 H172        6.4550    0.3020   -4.5540 h1        1 QD0      0.086700
     29 H141        8.7820    3.0200   -4.6210 hc        1 QD0      0.098200
     30 H142        9.3540    2.7170   -2.9240 hc        1 QD0      0.098200
     31 H11         4.5490    3.8000   -3.8660 hn        1 QD0      0.479800
     32 H121        4.9000    5.8210   -5.2010 hx        1 QD0      0.110367
     33 H122        3.7840    6.0760   -3.7600 hx        1 QD0      0.110367
     34 H123        5.5390    6.6170   -3.6850 hx        1 QD0      0.110367
     35 H15         8.7320    0.6980   -4.9510 h1        1 QD0      0.077700
     36 H16        10.1520    0.2670   -3.2860 ho        1 QD0      0.428000
     37 H112        5.1550    4.5190   -2.5030 hn        1 QD0      0.479800
@<TRIPOS>BOND
     1    1    2 1   
     2    1   20 1   
     3    1   21 1   
     4    1   22 1   
     5    2    3 2   
     6    2   18 1   
     7    3    4 1   
     8    4    5 1   
     9    5    6 1   
    10    5   18 2   
    11    6    7 1   
    12    6   24 1   
    13    6   25 1   
    14    7    8 1   
    15    7   17 2   
    16    8    9 1   
    17    8   16 1   
    18    9   10 1   
    19    9   14 1   
    20    9   26 1   
    21   10   11 1   
    22   10   13 2   
    23   11   12 1   
    24   11   31 1   
    25   11   37 1   
    26   12   32 1   
    27   12   33 1   
    28   12   34 1   
    29   14   15 1   
    30   14   29 1   
    31   14   30 1   
    32   15   16 1   
    33   15   19 1   
    34   15   35 1   
    35   16   27 1   
    36   16   28 1   
    37   18   23 1   
    38   19   36 1   
@<TRIPOS>SUBSTRUCTURE
     1 QD0         1 TEMP              0 ****  ****    0 ROOT
