@<TRIPOS>MOLECULE
molecule
   24    25     1     0     0
SMALL
bcc


@<TRIPOS>ATOM
      1 O3           0.0000     0.0000     0.0000 o          1 QDO      -0.612700
      2 N3           1.4160     0.0000     0.0000 na         1 QDO       0.421300
      3 C2           2.0800     0.0000     1.1430 ca         1 QDO      -0.070600
      4 C1           1.3220     0.0010     2.4450 c3         1 QDO       0.048300
      5 C11          3.4680    -0.0010     1.1590 ca         1 QDO      -0.070600
      6 C12          4.1980    -0.0010     2.4770 c3         1 QDO       0.048300
      7 C4           2.0920    -0.0070    -1.1650 ca         1 QDO      -0.032800
      8 C5           1.4170    -0.0130    -2.3930 ca         1 QDO      -0.082500
      9 C6           2.1290    -0.0180    -3.5560 ca         1 QDO      -0.103000
     10 C7           3.5210    -0.0180    -3.5410 ca         1 QDO      -0.103000
     11 C8           4.2080    -0.0140    -2.3640 ca         1 QDO      -0.082500
     12 C9           3.5060    -0.0070    -1.1500 ca         1 QDO      -0.032800
     13 N10          4.1570    -0.0020     0.0300 na         1 QDO       0.139600
     14 O10          5.5730    -0.0030     0.0610 o          1 QDO      -0.331000
     15 H2           1.9040    -0.5090     3.2020 h1         1 QDO       0.111200
     16 H3           0.3760    -0.5090     2.3120 h1         1 QDO       0.111200
     17 H5           3.6000     0.5110     3.2210 h1         1 QDO       0.111200
     18 H6           5.1470     0.5090     2.3630 h1         1 QDO       0.111200
     19 H8           0.3340    -0.0130    -2.4180 ha         1 QDO       0.188500
     20 H9           1.6040    -0.0210    -4.5040 ha         1 QDO       0.152000
     21 H10          4.0650    -0.0220    -4.4780 ha         1 QDO       0.152000
     22 H11          5.2910    -0.0140    -2.3660 ha         1 QDO       0.188500
     23 Br1          4.5150    -1.8540     3.0510 br         1 QDO      -0.130900
     24 Br2          0.9920     1.8560     3.0110 br         1 QDO      -0.130900
@<TRIPOS>BOND
     1     4     3 1
     2     1     2 2
     3     3     2 1
     4     3     5 ar
     5     2     7 2
     6     6     5 1
     7     5    13 1
     8     7     8 ar
     9     7    12 ar
    10     8     9 ar
    11    13    12 2
    12    13    14 1
    13    12    11 ar
    14     9    10 ar
    15    11    10 ar
    16     4    15 1
    17     4    16 1
    18     6    17 1
    19     6    18 1
    20     8    19 1
    21     9    20 1
    22    10    21 1
    23    11    22 1
    24     6    23 1
    25     4    24 1
@<TRIPOS>SUBSTRUCTURE
     1 QDO         1 TEMP              0 ****  ****    0 ROOT
