@<TRIPOS>MOLECULE
QDO
   24    24     1     0     0
SMALL
bcc


@<TRIPOS>ATOM
      1 O3          0.4280   -0.0690   -0.2710 o         1 QDO     -0.520700
      2 N3          1.6350   -0.0310   -0.1280 na        1 QDO      0.531700
      3 C2          2.1970   -0.1070    1.1960 c2        1 QDO     -0.200000
      4 C1          1.2520   -0.2080    2.3340 c3        1 QDO     -0.174000
      5 C11         3.5840   -0.0900    1.3930 c2        1 QDO      0.136000
      6 C12         4.1930   -0.1620    2.7530 c3        1 QDO     -0.217000
      7 C4          2.4840    0.0750   -1.1980 c2        1 QDO     -0.245000
      8 C5         -0.1510    0.1930   -3.4990 c1        1 QDO     -0.227500
      9 C6          0.0900    0.2850   -4.6670 c1        1 QDO     -0.227500
     10 C7          6.1650    0.2000   -1.0400 c1        1 QDO      0.038000
     11 C8          5.0000    0.2280   -1.8860 c2        1 QDO     -0.353000
     12 C9          3.8920    0.1050   -1.0240 c2        1 QDO      0.117000
     13 N10         4.3990    0.0010    0.2960 na        1 QDO     -0.135000
     14 O10         5.7850    0.0730    0.2350 os        1 QDO     -0.010000
     15 H2          1.6570   -0.8840    3.1260 h1        1 QDO      0.150000
     16 H3          0.2530   -0.5970    2.0060 h1        1 QDO      0.150000
     17 H5          5.2160    0.2950    2.7640 h1        1 QDO      0.158000
     18 H6          3.5530    0.3750    3.4960 h1        1 QDO      0.158000
     19 H8          2.0270    0.1390   -2.2020 h4        1 QDO      0.222000
     20 H9         -0.3740    0.1110   -2.4600 ha        1 QDO      0.227500
     21 H10         0.3010    0.3670   -5.7030 ha        1 QDO      0.227500
     22 H11         4.9890    0.3220   -2.9660 ha        1 QDO      0.193000
     23 BR1         4.3960   -1.9770    3.3600 br        1 QDO      0.021000
     24 BR2         0.9100    1.4990    3.1700 br        1 QDO     -0.020000
@<TRIPOS>BOND
     1    1    2 2   
     2    2    3 1   
     3    2    7 1   
     4    3    4 1   
     5    3    5 1   
     6    4   15 1   
     7    4   16 1   
     8    4   24 1   
     9    5    6 1   
    10    5   13 1   
    11    6   17 1   
    12    6   18 1   
    13    6   23 1   
    14    7   12 1   
    15    7   19 1   
    16    8    9 1   
    17    8   20 1   
    18    9   21 1   
    19   10   11 1   
    20   10   14 1   
    21   11   12 1   
    22   11   22 1   
    23   12   13 1   
    24   13   14 1   
@<TRIPOS>SUBSTRUCTURE
     1 QDO         1 TEMP              0 ****  ****    0 ROOT
