@<TRIPOS>MOLECULE
QDR
   32    34     1     0     0
SMALL
bcc


@<TRIPOS>ATOM
      1 CAA          0.0000     0.0000     0.0000 c3         1 QDR       0.068200
      2 OAC          4.4510     0.0020    -4.1640 o          1 QDR      -0.658500
      3 CAD          3.7840     0.0000     0.0000 ca         1 QDR      -0.117000
      4 CAE          2.4640     0.0000     0.4270 ca         1 QDR      -0.069000
      5 CAF          4.0860    -0.0000    -1.3440 ca         1 QDR      -0.026000
      6 CAG         -0.1740     0.0050    -5.0160 c3         1 QDR       0.066400
      7 NAH         -4.2250     0.0040    -5.3240 na         1 QDR       0.352600
      8 NAI         -2.5750    -0.0030    -6.7140 nc         1 QDR      -0.733000
      9 NAJ          0.7210     0.0030    -2.7780 nc         1 QDR      -0.514100
     10 NAK         -4.7290     0.0050    -6.6360 nd         1 QDR      -0.708800
     11 NAL          2.2430     0.0040    -4.5530 ns         1 QDR      -0.004400
     12 SAM         -1.7320     0.0040    -4.0950 ss         1 QDR      -0.326400
     13 CAN          1.4280     0.0010    -0.4810 ca         1 QDR      -0.073300
     14 CAO         -3.6960     0.0010    -7.4420 cc         1 QDR       0.697900
     15 CAP          0.9810     0.0040    -4.0500 cd         1 QDR       0.287900
     16 CAQ         -2.8790     0.0040    -5.4320 cd         1 QDR       0.378800
     17 CAR          3.3150     0.0030    -3.7260 c          1 QDR       0.619100
     18 CAS          3.0540     0.0020    -2.2790 ca         1 QDR      -0.205600
     19 CAT          1.7090     0.0020    -1.8490 ca         1 QDR       0.144400
     20 HAA         -0.0190    -0.1360     1.0750 hc         1 QDR       0.013367
     21 HAAA        -0.4670     0.9440    -0.2530 hc         1 QDR       0.013367
     22 HAAB        -0.5410    -0.8090    -0.4760 hc         1 QDR       0.013367
     23 HNAB        -4.0760     0.8080    -9.3270 hn         1 QDR       0.275800
     24 HNAA        -3.4890    -0.8230    -9.3470 hn         1 QDR       0.275800
     25 HAD          4.5850    -0.0010     0.7300 ha         1 QDR       0.108000
     26 HAE          2.2450     0.0000     1.4880 ha         1 QDR       0.108000
     27 HAF          5.1190    -0.0000    -1.6720 ha         1 QDR       0.125000
     28 HAG         -0.1230    -0.8790    -5.6410 h1         1 QDR       0.062700
     29 HAGA        -0.1230     0.8900    -5.6390 h1         1 QDR       0.062700
     30 HNAL         2.3810     0.0050    -5.5440 hn         1 QDR       0.183500
     31 HNAH        -4.7580     0.0070    -4.4770 hn         1 QDR       0.162700
     32 NAB         -3.7570    -0.0040    -8.8370 nv         1 QDR      -0.586500
@<TRIPOS>BOND
     1     1    13 1   
     2     1    20 1   
     3     1    21 1   
     4     1    22 1   
     5     2    17 2   
     6     3     4 ar  
     7     3     5 ar  
     8     3    25 1   
     9     4    13 ar  
    10     4    26 1   
    11     5    18 ar  
    12     5    27 1   
    13     6    12 1   
    14     6    15 1   
    15     6    28 1   
    16     6    29 1   
    17     7    10 1   
    18     7    16 1   
    19     7    31 1   
    20     8    14 1   
    21     8    16 2   
    22     9    15 2   
    23     9    19 1   
    24    10    14 2   
    25    11    15 1   
    26    11    17 1   
    27    11    30 1   
    28    12    16 1   
    29    13    19 ar  
    30    14    32 1   
    31    17    18 1   
    32    18    19 ar  
    33    23    32 1   
    34    24    32 1   
@<TRIPOS>SUBSTRUCTURE
     1 QDR         1 TEMP              0 ****  ****    0 ROOT
