@<TRIPOS>MOLECULE
molecule
   32    34     1     0     0
SMALL
bcc


@<TRIPOS>ATOM
      1 CAA          0.0000     0.0000     0.0000 c3         1 QDR      -0.037800
      2 OAC          4.4510     0.0020    -4.1640 o          1 QDR      -0.616500
      3 CAD          3.7840     0.0000     0.0000 ca         1 QDR      -0.145000
      4 CAE          2.4640     0.0000     0.4270 ca         1 QDR      -0.095000
      5 CAF          4.0860    -0.0000    -1.3440 ca         1 QDR      -0.059000
      6 CAG         -0.1740     0.0050    -5.0160 c3         1 QDR      -0.048600
      7 NAH         -4.2250     0.0040    -5.3240 na         1 QDR      -0.155400
      8 NAI         -2.5750    -0.0030    -6.7140 nc         1 QDR      -0.803000
      9 NAJ          0.7210     0.0030    -2.7780 nc         1 QDR      -0.645100
     10 NAK         -4.7290     0.0050    -6.6360 nd         1 QDR      -0.555800
     11 NAL          2.2430     0.0040    -4.5530 ns         1 QDR      -0.467400
     12 SAM         -1.7320     0.0040    -4.0950 ss         1 QDR      -0.185400
     13 CAN          1.4280     0.0010    -0.4810 ca         1 QDR      -0.068300
     14 CAO         -3.6960     0.0010    -7.4420 cc         1 QDR       0.831900
     15 CAP          0.9810     0.0040    -4.0500 cd         1 QDR       0.502900
     16 CAQ         -2.8790     0.0040    -5.4320 cd         1 QDR       0.535800
     17 CAR          3.3150     0.0030    -3.7260 c          1 QDR       0.709100
     18 CAS          3.0540     0.0020    -2.2790 ca         1 QDR      -0.198600
     19 CAT          1.7090     0.0020    -1.8490 ca         1 QDR       0.192400
     20 HAA         -0.0190    -0.1360     1.0750 hc         1 QDR       0.048367
     21 HAAA        -0.4670     0.9440    -0.2530 hc         1 QDR       0.048367
     22 HAAB        -0.5410    -0.8090    -0.4760 hc         1 QDR       0.048367
     23 HNAB        -4.0760     0.8080    -9.3270 hn         1 QDR       0.444800
     24 HNAA        -3.4890    -0.8230    -9.3470 hn         1 QDR       0.444800
     25 HAD          4.5850    -0.0010     0.7300 ha         1 QDR       0.137000
     26 HAE          2.2450     0.0000     1.4880 ha         1 QDR       0.137000
     27 HAF          5.1190    -0.0000    -1.6720 ha         1 QDR       0.155000
     28 HAG         -0.1230    -0.8790    -5.6410 h1         1 QDR       0.101200
     29 HAGA        -0.1230     0.8900    -5.6390 h1         1 QDR       0.101200
     30 HNAL         2.3810     0.0050    -5.5440 hn         1 QDR       0.340500
     31 HNAH        -4.7580     0.0070    -4.4770 hn         1 QDR       0.338700
     32 NAB         -3.7570    -0.0040    -8.8370 nv         1 QDR      -1.037500
@<TRIPOS>BOND
     1    13     1 1
     2     1    20 1
     3     1    21 1
     4     1    22 1
     5    14    32 1
     6    32    23 1
     7    32    24 1
     8    17     2 2
     9     3     4 ar
    10     3     5 ar
    11     3    25 1
    12     4    13 ar
    13     4    26 1
    14     5    18 ar
    15     5    27 1
    16    15     6 1
    17     6    12 1
    18     6    28 1
    19     6    29 1
    20    16     7 1
    21     7    10 1
    22    16     8 2
    23     8    14 1
    24    19     9 1
    25     9    15 2
    26    14    10 2
    27    17    11 1
    28    15    11 1
    29    11    30 1
    30    12    16 1
    31    13    19 ar
    32    18    17 1
    33    18    19 ar
    34     7    31 1
@<TRIPOS>SUBSTRUCTURE
     1 QDR         1 TEMP              0 ****  ****    0 ROOT
