@<TRIPOS>MOLECULE
molecule
   68    70     1     0     0
SMALL
bcc


@<TRIPOS>ATOM
      1 C1           0.0000     0.0000     0.0000 ca         1 QED      -0.159600
      2 C2           1.4000     0.0000     0.0000 ca         1 QED       0.159100
      3 C3           2.0890     0.0000     1.2100 ca         1 QED       0.057100
      4 C4           1.3890    -0.0000     2.4040 ca         1 QED      -0.127000
      5 C5           0.0040    -0.0010     2.4040 ca         1 QED      -0.136000
      6 C6          -0.6920     0.0050     1.2150 ca         1 QED      -0.103000
      7 O7           2.0830     0.0010    -1.1730 oh         1 QED      -0.483100
      8 O8           3.4490     0.0000     1.2190 oh         1 QED      -0.515100
      9 C9          -0.7410    -0.0000    -1.2760 c          1 QED       0.674700
     10 O10         -0.1360    -0.0050    -2.3300 o          1 QED      -0.577100
     11 N11         -2.0880     0.0040    -1.2720 ns         1 QED      -0.593900
     12 C12         -2.8250     0.0040    -2.5390 c3         1 QED       0.114000
     13 C13         -4.3280     0.0100    -2.2550 c3         1 QED       0.141800
     14 N14         -5.0660     0.0100    -3.5240 n3         1 QED      -0.715600
     15 C15         -6.4990    -0.2220    -3.3010 c3         1 QED       0.138800
     16 C16         -6.7350    -1.7040    -3.0020 c3         1 QED       0.114500
     17 N17         -8.1730    -1.9520    -2.8620 ns         1 QED      -0.584400
     18 C18         -8.6200    -3.1950    -2.5970 c          1 QED       0.661300
     19 O19         -7.8300    -4.1110    -2.4730 o          1 QED      -0.561100
     20 C21         -4.8440     1.2610    -4.2620 c3         1 QED       0.138800
     21 C22         -5.2630     1.0740    -5.7220 c3         1 QED       0.114500
     22 N23         -5.1040     2.3400    -6.4420 ns         1 QED      -0.584400
     23 C24         -5.4150     2.4130    -7.7520 c          1 QED       0.661300
     24 N25        -10.5180    -4.7080    -2.1740 n          1 QED      -0.176500
     25 C26        -11.8350    -4.9540    -2.0420 c          1 QED       0.677700
     26 C27        -12.7700    -3.9060    -2.1880 cc         1 QED      -0.234200
     27 C28        -12.3280    -2.6470    -2.4620 cd         1 QED      -0.060000
     28 C29        -10.9500    -2.4140    -2.5950 cd         1 QED      -0.220000
     29 O30         -9.5880    -5.7660    -2.0270 oh         1 QED      -0.330100
     30 O31        -12.2220    -6.0850    -1.7970 o          1 QED      -0.631500
     31 O32         -5.8270     1.4290    -8.3350 o          1 QED      -0.561100
     32 C33         -5.2550     3.6920    -8.4780 cd         1 QED       0.024900
     33 N34         -5.5720     3.7610    -9.8090 n          1 QED      -0.176500
     34 C35         -5.4330     4.9150   -10.4870 c          1 QED       0.677700
     35 C36         -4.9570     6.0710    -9.8280 cd         1 QED      -0.234200
     36 C37         -4.6410     6.0060    -8.5060 cc         1 QED      -0.060000
     37 C38         -4.7980     4.7930    -7.8180 cc         1 QED      -0.220000
     38 O39         -6.0490     2.6080   -10.4780 oh         1 QED      -0.330100
     39 O40         -5.7180     4.9640   -11.6720 o          1 QED      -0.631500
     40 C41        -10.0700    -3.4440    -2.4550 cc         1 QED       0.024900
     41 H4           1.9280    -0.0020     3.3440 ha         1 QED       0.144000
     42 H5          -0.5350     0.0000     3.3440 ha         1 QED       0.138000
     43 H6          -1.7750     0.0040     1.2220 ha         1 QED       0.128000
     44 HO7          2.5060     0.8350    -1.2900 ho         1 QED       0.434000
     45 HO8          3.7620    -0.8550     1.4620 ho         1 QED       0.428000
     46 HN11        -2.5860    -0.0030    -0.4040 hn         1 QED       0.310500
     47 H12         -2.5620     0.8870    -3.1090 h1         1 QED       0.063200
     48 H12A        -2.5680    -0.8820    -3.1060 h1         1 QED       0.063200
     49 H13         -4.5860     0.8960    -1.6880 h1         1 QED       0.041700
     50 H13A        -4.5910    -0.8730    -1.6850 h1         1 QED       0.041700
     51 H15         -6.8350     0.3730    -2.4610 h1         1 QED       0.042950
     52 H15A        -7.0530     0.0600    -4.1880 h1         1 QED       0.042950
     53 H16         -6.2310    -1.9720    -2.0810 h1         1 QED       0.067200
     54 H16A        -6.3430    -2.3030    -3.8160 h1         1 QED       0.067200
     55 HN17        -8.8230    -1.1990    -2.9760 hn         1 QED       0.315000
     56 H21         -3.7940     1.5240    -4.2190 h1         1 QED       0.042950
     57 H21A        -5.4340     2.0530    -3.8160 h1         1 QED       0.042950
     58 H22         -4.6400     0.3160    -6.1820 h1         1 QED       0.067200
     59 H22A        -6.3000     0.7630    -5.7630 h1         1 QED       0.067200
     60 HN23        -4.7350     3.1410    -5.9690 hn         1 QED       0.315000
     61 H27        -13.8300    -4.1010    -2.0820 ha         1 QED       0.173000
     62 H28        -13.0340    -1.8330    -2.5740 ha         1 QED       0.143000
     63 H29        -10.5880    -1.4170    -2.8120 ha         1 QED       0.144000
     64 HO30        -9.6610    -6.1300    -1.1610 ho         1 QED       0.419500
     65 H36         -4.8430     7.0010   -10.3720 ha         1 QED       0.173000
     66 H37         -4.2770     6.8850    -7.9870 ha         1 QED       0.143000
     67 H38         -4.5490     4.7300    -6.7650 ha         1 QED       0.144000
     68 HO39        -6.9140     2.7750   -10.8150 ho         1 QED       0.419500
@<TRIPOS>BOND
     1     2     1 ar
     2     1     9 1
     3     1     6 ar
     4     7     2 1
     5     3     2 ar
     6     8     3 1
     7     3     4 ar
     8     4     5 ar
     9     4    41 1
    10     5     6 ar
    11     5    42 1
    12     6    43 1
    13     7    44 1
    14     8    45 1
    15     9    10 2
    16     9    11 1
    17    11    12 1
    18    11    46 1
    19    12    13 1
    20    12    47 1
    21    12    48 1
    22    14    13 1
    23    13    49 1
    24    13    50 1
    25    15    14 1
    26    14    20 1
    27    16    15 1
    28    15    51 1
    29    15    52 1
    30    17    16 1
    31    16    53 1
    32    16    54 1
    33    18    17 1
    34    17    55 1
    35    19    18 2
    36    40    18 1
    37    20    21 1
    38    20    56 1
    39    20    57 1
    40    22    21 1
    41    21    58 1
    42    21    59 1
    43    22    23 1
    44    22    60 1
    45    32    23 1
    46    23    31 2
    47    25    24 1
    48    40    24 1
    49    24    29 1
    50    26    25 1
    51    25    30 2
    52    27    26 2
    53    26    61 1
    54    27    28 1
    55    27    62 1
    56    28    40 2
    57    28    63 1
    58    29    64 1
    59    33    32 1
    60    37    32 2
    61    34    33 1
    62    33    38 1
    63    39    34 2
    64    35    34 1
    65    35    36 2
    66    35    65 1
    67    36    37 1
    68    36    66 1
    69    37    67 1
    70    38    68 1
@<TRIPOS>SUBSTRUCTURE
     1 QED         1 TEMP              0 ****  ****    0 ROOT
