@<TRIPOS>MOLECULE
QEG
   73    75     1     0     0
SMALL
bcc


@<TRIPOS>ATOM
      1 O2           0.0000     0.0000     0.0000 o          1 QEG      -0.683100
      2 S7           4.3520    -1.4420     8.3280 ss         1 QEG      -0.249800
      3 C11          1.2130     0.0000     0.0000 c          1 QEG       0.579100
      4 C12          1.9660     0.0000     1.3060 c3         1 QEG      -0.094400
      5 C13          0.9720    -0.0010     2.4680 c3         1 QEG       0.052900
      6 C14          2.0700     1.1980     4.3700 ca         1 QEG      -0.091500
      7 C15          2.7590    -1.2090     5.5640 ca         1 QEG      -0.090000
      8 C16          3.1100    -0.0020     6.1710 ca         1 QEG       0.019000
      9 C17          2.7600     1.2050     5.5650 ca         1 QEG      -0.090000
     10 C18          3.8480    -0.0040     7.4530 cc         1 QEG       0.049900
     11 C19          4.2350     1.0970     8.1220 cd         1 QEG      -0.111000
     12 C20          4.9180     0.8450     9.3060 cd         1 QEG      -0.051000
     13 C21          5.4250     1.9280    10.1850 ca         1 QEG      -0.023000
     14 C22          6.1030     1.6150    11.3610 ca         1 QEG      -0.096000
     15 C23          6.5730     2.6260    12.1740 ca         1 QEG      -0.095000
     16 C24          6.3720     3.9480    11.8230 ca         1 QEG      -0.094000
     17 C25          5.7000     4.2660    10.6560 ca         1 QEG      -0.095000
     18 C26          5.2310     3.2620     9.8330 ca         1 QEG      -0.096000
     19 C27          1.7250    -0.0020     3.7730 ca         1 QEG      -0.118300
     20 C28          2.0690    -1.2020     4.3690 ca         1 QEG      -0.091500
     21 C29          5.0810    -0.4610     9.5920 cc         1 QEG       0.014900
     22 N2           1.8870     0.0010    -1.1670 ns         1 QEG      -0.185900
     23 C7           1.1540     0.0010    -2.4350 c3         1 QEG      -0.049300
     24 C6           2.0180    -0.5980    -3.5150 c          1 QEG       0.577100
     25 O1           3.1360    -0.9890    -3.2490 o          1 QEG      -0.641100
     26 C8           0.7900     1.4380    -2.8140 c3         1 QEG      -0.027400
     27 C9          -0.1870     2.0050    -1.7830 c3         1 QEG      -0.108400
     28 C10         -0.5450     3.4200    -2.1540 c          1 QEG       0.314100
     29 O4E         -0.0670     3.9260    -3.1480 o          1 QEG      -0.409100
     30 N4          -1.3980     4.1250    -1.3850 nz         1 QEG       0.199600
     31 N1           1.5490    -0.7030    -4.7740 ns         1 QEG      -0.137900
     32 C2           2.3890    -1.2860    -5.8230 c3         1 QEG      -0.065300
     33 C1           3.2860    -0.2190    -6.3990 c          1 QEG       0.317100
     34 O9           3.2250     0.9160    -5.9780 o          1 QEG      -0.451100
     35 C3           1.5000    -1.8570    -6.9300 c3         1 QEG      -0.025400
     36 C4           0.6800    -3.0220    -6.3740 c3         1 QEG      -0.136400
     37 C5          -0.1960    -3.5850    -7.4640 c          1 QEG       0.970600
     38 O8E         -1.0090    -4.6210    -7.2040 o          1 QEG      -0.861300
     39 O8          -0.1660    -3.1030    -8.5710 o          1 QEG      -0.861300
     40 N9           4.1510    -0.5270    -7.3850 nz         1 QEG       0.199600
     41 H12          2.5890    -0.8840     1.3630 hc         1 QEG       0.041200
     42 H12A         2.5880     0.8850     1.3640 hc         1 QEG       0.041200
     43 H13          0.3490    -0.8860     2.4100 hc         1 QEG       0.026200
     44 H13A         0.3490     0.8840     2.4110 hc         1 QEG       0.026200
     45 H14          1.7970     2.1350     3.8990 ha         1 QEG       0.101500
     46 H15          3.0280    -2.1490     6.0300 ha         1 QEG       0.118000
     47 H17          3.0290     2.1440     6.0310 ha         1 QEG       0.118000
     48 H19          4.0310     2.1000     7.7670 ha         1 QEG       0.128000
     49 H22          6.2600     0.5790    11.6370 ha         1 QEG       0.105500
     50 H23          7.1010     2.3830    13.0890 ha         1 QEG       0.104500
     51 H24          6.7410     4.7390    12.4650 ha         1 QEG       0.105000
     52 H25          5.5480     5.3030    10.3850 ha         1 QEG       0.104500
     53 H26          4.7040     3.5110     8.9200 ha         1 QEG       0.105500
     54 H28          1.7970    -2.1390     3.8970 ha         1 QEG       0.101500
     55 H29          5.5860    -0.8490    10.4690 h4         1 QEG       0.160000
     56 HN2          2.8870    -0.0320    -1.1670 hn         1 QEG       0.212500
     57 H7           0.2500    -0.5850    -2.3300 h1         1 QEG       0.085700
     58 H8           1.6870     2.0450    -2.8340 hc         1 QEG       0.039700
     59 H8A          0.3260     1.4470    -3.7930 hc         1 QEG       0.039700
     60 H9          -1.0840     1.3980    -1.7640 hc         1 QEG       0.085200
     61 H9A          0.2760     1.9950    -0.8030 hc         1 QEG       0.085200
     62 HN4         -0.9900     4.2730    -0.4830 hn         1 QEG       0.249467
     63 HN4A        -1.5850     5.0080    -1.8160 hn         1 QEG       0.249467
     64 HN1          0.6400    -0.3500    -5.0000 hn         1 QEG       0.201500
     65 H2           2.9950    -2.0790    -5.4020 h1         1 QEG       0.095700
     66 H3           2.1200    -2.2090    -7.7450 hc         1 QEG       0.032700
     67 H30          0.8320    -1.0840    -7.2910 hc         1 QEG       0.032700
     68 H4           0.0590    -2.6700    -5.5580 hc         1 QEG       0.016700
     69 H31          1.3480    -3.7940    -6.0130 hc         1 QEG       0.016700
     70 HN9          4.9420     0.0840    -7.3380 hn         1 QEG       0.250467
     71 HN9A         3.6990    -0.4210    -8.2710 hn         1 QEG       0.250467
     72 H43         -2.2520     3.6140    -1.2790 hn         1 QEG       0.249467
     73 H93          4.4880    -1.4610    -7.2540 hn         1 QEG       0.250467
@<TRIPOS>BOND
     1     1     3 2   
     2     2    10 1   
     3     2    21 1   
     4     3     4 1   
     5     3    22 1   
     6     4     5 1   
     7     4    41 1   
     8     4    42 1   
     9     5    19 1   
    10     5    43 1   
    11     5    44 1   
    12     6     9 ar  
    13     6    19 ar  
    14     6    45 1   
    15     7     8 ar  
    16     7    20 ar  
    17     7    46 1   
    18     8     9 ar  
    19     8    10 1   
    20     9    47 1   
    21    10    11 2   
    22    11    12 1   
    23    11    48 1   
    24    12    13 1   
    25    12    21 2   
    26    13    14 ar  
    27    13    18 ar  
    28    14    15 ar  
    29    14    49 1   
    30    15    16 ar  
    31    15    50 1   
    32    16    17 ar  
    33    16    51 1   
    34    17    18 ar  
    35    17    52 1   
    36    18    53 1   
    37    19    20 ar  
    38    20    54 1   
    39    21    55 1   
    40    22    23 1   
    41    22    56 1   
    42    23    24 1   
    43    23    26 1   
    44    23    57 1   
    45    24    25 2   
    46    24    31 1   
    47    26    27 1   
    48    26    58 1   
    49    26    59 1   
    50    27    28 1   
    51    27    60 1   
    52    27    61 1   
    53    28    29 2   
    54    28    30 1   
    55    30    62 1   
    56    30    63 1   
    57    30    72 1   
    58    31    32 1   
    59    31    64 1   
    60    32    33 1   
    61    32    35 1   
    62    32    65 1   
    63    33    34 2   
    64    33    40 1   
    65    35    36 1   
    66    35    66 1   
    67    35    67 1   
    68    36    37 1   
    69    36    68 1   
    70    36    69 1   
    71    37    38 1   
    72    37    39 1   
    73    40    70 1   
    74    40    71 1   
    75    40    73 1   
@<TRIPOS>SUBSTRUCTURE
     1 QEG         1 TEMP              0 ****  ****    0 ROOT
