@<TRIPOS>MOLECULE
molecule
   73    75     1     0     0
SMALL
bcc


@<TRIPOS>ATOM
      1 O2           0.0000     0.0000     0.0000 o          1 QEG      -0.642100
      2 S7           4.3520    -1.4420     8.3280 ss         1 QEG      -0.123800
      3 C11          1.2130     0.0000     0.0000 c          1 QEG       0.659100
      4 C12          1.9660     0.0000     1.3060 c3         1 QEG      -0.152400
      5 C13          0.9720    -0.0010     2.4680 c3         1 QEG      -0.014100
      6 C14          2.0700     1.1980     4.3700 ca         1 QEG      -0.118000
      7 C15          2.7590    -1.2090     5.5640 ca         1 QEG      -0.115000
      8 C16          3.1100    -0.0020     6.1710 ca         1 QEG       0.015000
      9 C17          2.7600     1.2050     5.5650 ca         1 QEG      -0.115000
     10 C18          3.8480    -0.0040     7.4530 cc         1 QEG      -0.005100
     11 C19          4.2350     1.0970     8.1220 cd         1 QEG      -0.128000
     12 C20          4.9180     0.8450     9.3060 cd         1 QEG      -0.060000
     13 C21          5.4250     1.9280    10.1850 ca         1 QEG      -0.022000
     14 C22          6.1030     1.6150    11.3610 ca         1 QEG      -0.118500
     15 C23          6.5730     2.6260    12.1740 ca         1 QEG      -0.123500
     16 C24          6.3720     3.9480    11.8230 ca         1 QEG      -0.122000
     17 C25          5.7000     4.2660    10.6560 ca         1 QEG      -0.123500
     18 C26          5.2310     3.2620     9.8330 ca         1 QEG      -0.118500
     19 C27          1.7250    -0.0020     3.7730 ca         1 QEG      -0.109300
     20 C28          2.0690    -1.2020     4.3690 ca         1 QEG      -0.118000
     21 C29          5.0810    -0.4610     9.5920 cc         1 QEG      -0.058100
     22 N2           1.8870     0.0010    -1.1670 ns         1 QEG      -0.576900
     23 C7           1.1540     0.0010    -2.4350 c3         1 QEG       0.047700
     24 C6           2.0180    -0.5980    -3.5150 c          1 QEG       0.664100
     25 O1           3.1360    -0.9890    -3.2490 o          1 QEG      -0.596100
     26 C8           0.7900     1.4380    -2.8140 c3         1 QEG      -0.085400
     27 C9          -0.1870     2.0050    -1.7830 c3         1 QEG      -0.155400
     28 C10         -0.5450     3.4200    -2.1540 c          1 QEG       0.478100
     29 O4E         -0.0670     3.9260    -3.1480 o          1 QEG      -0.406100
     30 N4          -1.3980     4.1250    -1.3850 nz         1 QEG      -0.684400
     31 N1           1.5490    -0.7030    -4.7740 ns         1 QEG      -0.547900
     32 C2           2.3890    -1.2860    -5.8230 c3         1 QEG       0.036700
     33 C1           3.2860    -0.2190    -6.3990 c          1 QEG       0.473100
     34 O9           3.2250     0.9160    -5.9780 o          1 QEG      -0.442100
     35 C3           1.5000    -1.8570    -6.9300 c3         1 QEG      -0.083400
     36 C4           0.6800    -3.0220    -6.3740 c3         1 QEG      -0.186400
     37 C5          -0.1960    -3.5850    -7.4640 c          1 QEG       0.886600
     38 O8E         -1.0090    -4.6210    -7.2040 o          1 QEG      -0.813800
     39 O8          -0.1660    -3.1030    -8.5710 o          1 QEG      -0.813800
     40 N9           4.1510    -0.5270    -7.3850 nz         1 QEG      -0.681400
     41 H12          2.5890    -0.8840     1.3630 hc         1 QEG       0.076200
     42 H12A         2.5880     0.8850     1.3640 hc         1 QEG       0.076200
     43 H13          0.3490    -0.8860     2.4100 hc         1 QEG       0.058200
     44 H13A         0.3490     0.8840     2.4110 hc         1 QEG       0.058200
     45 H14          1.7970     2.1350     3.8990 ha         1 QEG       0.127000
     46 H15          3.0280    -2.1490     6.0300 ha         1 QEG       0.141500
     47 H17          3.0290     2.1440     6.0310 ha         1 QEG       0.141500
     48 H19          4.0310     2.1000     7.7670 ha         1 QEG       0.149000
     49 H22          6.2600     0.5790    11.6370 ha         1 QEG       0.128500
     50 H23          7.1010     2.3830    13.0890 ha         1 QEG       0.133000
     51 H24          6.7410     4.7390    12.4650 ha         1 QEG       0.134000
     52 H25          5.5480     5.3030    10.3850 ha         1 QEG       0.133000
     53 H26          4.7040     3.5110     8.9200 ha         1 QEG       0.128500
     54 H28          1.7970    -2.1390     3.8970 ha         1 QEG       0.127000
     55 H29          5.5860    -0.8490    10.4690 h4         1 QEG       0.180000
     56 HN2          2.8870    -0.0320    -1.1670 hn         1 QEG       0.350500
     57 H7           0.2500    -0.5850    -2.3300 h1         1 QEG       0.115700
     58 H8           1.6870     2.0450    -2.8340 hc         1 QEG       0.073200
     59 H8A          0.3260     1.4470    -3.7930 hc         1 QEG       0.073200
     60 H9          -1.0840     1.3980    -1.7640 hc         1 QEG       0.116200
     61 H9A          0.2760     1.9950    -0.8030 hc         1 QEG       0.116200
     62 HN4         -0.9900     4.2730    -0.4830 hn         1 QEG       0.480800
     63 HN4A        -1.5850     5.0080    -1.8160 hn         1 QEG       0.480800
     64 HN1          0.6400    -0.3500    -5.0000 hn         1 QEG       0.345500
     65 H2           2.9950    -2.0790    -5.4020 h1         1 QEG       0.124700
     66 H3           2.1200    -2.2090    -7.7450 hc         1 QEG       0.063200
     67 H30          0.8320    -1.0840    -7.2910 hc         1 QEG       0.063200
     68 H4           0.0590    -2.6700    -5.5580 hc         1 QEG       0.044200
     69 H31          1.3480    -3.7940    -6.0130 hc         1 QEG       0.044200
     70 HN9          4.9420     0.0840    -7.3380 hn         1 QEG       0.479133
     71 HN9A         3.6990    -0.4210    -8.2710 hn         1 QEG       0.479133
     72 H43         -2.2520     3.6140    -1.2790 hn         1 QEG       0.480800
     73 H93          4.4880    -1.4610    -7.2540 hn         1 QEG       0.479133
@<TRIPOS>BOND
     1    33    32 1
     2    33    40 1
     3    33    34 2
     4    31    32 1
     5    31    24 1
     6    31    64 1
     7    25    24 2
     8    32    35 1
     9    32    65 1
    10    22    23 1
    11    22     3 1
    12    22    56 1
    13     1     3 2
    14    35    36 1
    15    35    66 1
    16    36    37 1
    17    36    68 1
    18    30    28 1
    19    30    62 1
    20    30    63 1
    21    37    39 1
    22    37    38 1
    23    24    23 1
    24    23    26 1
    25    23    57 1
    26     2    10 1
    27     2    21 1
    28    26    27 1
    29    26    58 1
    30    26    59 1
    31    27    28 1
    32    27    60 1
    33    27    61 1
    34    40    70 1
    35    40    71 1
    36    28    29 2
    37     3     4 1
    38     4     5 1
    39     4    41 1
    40     4    42 1
    41     5    19 1
    42     5    43 1
    43     5    44 1
    44     6     9 ar
    45     6    19 ar
    46     6    45 1
    47     7     8 ar
    48     7    20 ar
    49     7    46 1
    50     8     9 ar
    51     8    10 1
    52     9    47 1
    53    10    11 2
    54    11    12 1
    55    11    48 1
    56    12    13 1
    57    12    21 2
    58    13    14 ar
    59    13    18 ar
    60    14    15 ar
    61    14    49 1
    62    15    16 ar
    63    15    50 1
    64    16    17 ar
    65    16    51 1
    66    17    18 ar
    67    17    52 1
    68    18    53 1
    69    19    20 ar
    70    20    54 1
    71    21    55 1
    72    35    67 1
    73    36    69 1
    74    72    30 1
    75    73    40 1
@<TRIPOS>SUBSTRUCTURE
     1 QEG         1 TEMP              0 ****  ****    0 ROOT
