@<TRIPOS>MOLECULE
QEH
   89    88     1     0     0
SMALL
bcc


@<TRIPOS>ATOM
      1 O1           0.0000     0.0000     0.0000 o          1 QEH      -0.589000
      2 C1           1.2090     0.0000     0.0000 c          1 QEH       0.692100
      3 O1A          1.8790     0.0000     1.1630 os         1 QEH      -0.416900
      4 C1A          1.0890    -0.0000     2.3800 c3         1 QEH       0.208400
      5 C2A          2.0210    -0.0000     3.5940 c3         1 QEH       0.157100
      6 O2A          2.7620     1.2210     3.6250 oh         1 QEH      -0.578800
      7 C3A          1.1910    -0.1270     4.8740 c3         1 QEH       0.306400
      8 O3A          2.0650    -0.2430     5.9980 os         1 QEH      -0.511200
      9 P            1.5340    -0.3940     7.5110 p5         1 QEH       0.920800
     10 O1B          0.6120    -1.5490     7.5960 o          1 QEH      -0.635000
     11 O2B          2.7840    -0.6320     8.4970 os         1 QEH      -0.527200
     12 O3B          0.7570     0.9470     7.9420 o          1 QEH      -0.635000
     13 C2B          2.6330    -0.9060     9.8920 c3         1 QEH       0.289400
     14 C2           1.9620    -0.0060    -1.3040 c3         1 QEH      -0.071400
     15 C3           0.9680    -0.0110    -2.4680 c3         1 QEH      -0.020400
     16 C4           1.7330    -0.0170    -3.7920 c3         1 QEH      -0.030400
     17 C5           0.7390    -0.0220    -4.9560 c3         1 QEH      -0.027400
     18 C6           1.5040    -0.0280    -6.2800 c3         1 QEH      -0.029400
     19 C7           0.5100    -0.0340    -7.4430 c3         1 QEH      -0.029400
     20 C8           1.2750    -0.0400    -8.7680 c3         1 QEH      -0.029400
     21 C9           0.2810    -0.0450    -9.9310 c3         1 QEH      -0.029400
     22 C10          1.0460    -0.0520   -11.2560 c3         1 QEH      -0.029400
     23 C11          0.0520    -0.0570   -12.4200 c3         1 QEH      -0.029400
     24 C12          0.8170    -0.0630   -13.7440 c3         1 QEH      -0.029400
     25 C13         -0.1780    -0.0690   -14.9070 c3         1 QEH      -0.029400
     26 C14          0.5870    -0.0750   -16.2320 c3         1 QEH      -0.029400
     27 C15         -0.4060    -0.0810   -17.3950 c3         1 QEH      -0.029400
     28 C16          0.3590    -0.0860   -18.7200 c3         1 QEH      -0.029400
     29 C17         -0.6350    -0.0920   -19.8830 c3         1 QEH      -0.028400
     30 C18          0.1300    -0.0980   -21.2080 c3         1 QEH       0.005900
     31 C19          4.0130    -1.0780    10.5300 c3         1 QEH      -0.040200
     32 C20          3.9090     1.2440    11.1220 c3         1 QEH       0.010100
     33 C21          6.0010     0.0730    11.2230 c3         1 QEH       0.010100
     34 N1           4.7320     0.2020    10.4930 n4         1 QEH       0.064200
     35 C22          5.0050     0.5710     9.0980 c3         1 QEH       0.010100
     36 H181         0.7480    -0.9850   -21.2640 hc         1 QEH       0.000033
     37 H182         0.7570     0.7840   -21.2670 hc         1 QEH       0.000033
     38 H183        -0.5740    -0.0960   -22.0320 hc         1 QEH       0.000033
     39 H171        -1.2580    -0.9760   -19.8220 hc         1 QEH       0.011700
     40 H172        -1.2580     0.7930   -19.8310 hc         1 QEH       0.011700
     41 H161         0.9820    -0.9700   -18.7740 hc         1 QEH       0.014700
     42 H162         0.9810     0.7990   -18.7810 hc         1 QEH       0.014700
     43 H151        -1.0290    -0.9650   -17.3340 hc         1 QEH       0.014700
     44 H152        -1.0300     0.8040   -17.3420 hc         1 QEH       0.014700
     45 H141         1.2110    -0.9590   -16.2850 hc         1 QEH       0.014700
     46 H142         1.2100     0.8100   -16.2940 hc         1 QEH       0.014700
     47 H131        -0.8010     0.8160   -14.8540 hc         1 QEH       0.014700
     48 H132        -0.8000    -0.9530   -14.8460 hc         1 QEH       0.014700
     49 H121         1.4390     0.8220   -13.8060 hc         1 QEH       0.014700
     50 H122         1.4410    -0.9470   -13.7980 hc         1 QEH       0.014700
     51 H111        -0.5710     0.8270   -12.3660 hc         1 QEH       0.014700
     52 H112        -0.5700    -0.9420   -12.3580 hc         1 QEH       0.014700
     53 H101         1.6690     0.8330   -11.3180 hc         1 QEH       0.014200
     54 H102         1.6690    -0.9360   -11.3090 hc         1 QEH       0.014200
     55 H91         -0.3420     0.8390    -9.8790 hc         1 QEH       0.014700
     56 H92         -0.3420    -0.9300    -9.8700 hc         1 QEH       0.014700
     57 H81          1.8980    -0.9240    -8.8220 hc         1 QEH       0.013700
     58 H82          1.8970     0.8450    -8.8290 hc         1 QEH       0.013700
     59 H71         -0.1120    -0.9190    -7.3820 hc         1 QEH       0.015700
     60 H72         -0.1140     0.8500    -7.3900 hc         1 QEH       0.015700
     61 H61          2.1270     0.8560    -6.3420 hc         1 QEH       0.013700
     62 H62          2.1270    -0.9130    -6.3330 hc         1 QEH       0.013700
     63 H51          0.1170    -0.9070    -4.8940 hc         1 QEH       0.017200
     64 H52          0.1160     0.8620    -4.9030 hc         1 QEH       0.017200
     65 H41          2.3550     0.8680    -3.8530 hc         1 QEH       0.011700
     66 H42          2.3570    -0.9010    -3.8460 hc         1 QEH       0.011700
     67 H31          0.3450     0.8730    -2.4140 hc         1 QEH       0.030200
     68 H32          0.3460    -0.8960    -2.4060 hc         1 QEH       0.030200
     69 H21          2.5850    -0.8900    -1.3570 hc         1 QEH       0.032700
     70 H22          2.5840     0.8790    -1.3660 hc         1 QEH       0.032700
     71 H1A1         0.4640     0.8850     2.4050 h1         1 QEH       0.020700
     72 H1A2         0.4640    -0.8850     2.4050 h1         1 QEH       0.020700
     73 H2A          2.7060    -0.8370     3.5230 h1         1 QEH       0.001700
     74 H1           3.6840     1.0310     3.5850 ho         1 QEH       0.381000
     75 H3A1         0.5630    -1.0070     4.8130 h1         1 QEH      -0.000800
     76 H3A2         0.5700     0.7530     4.9900 h1         1 QEH      -0.000800
     77 H2B1         2.1160    -0.0820    10.3680 h1         1 QEH       0.020700
     78 H2B2         2.0600    -1.8160    10.0210 h1         1 QEH       0.020700
     79 H191         4.5750    -1.8240     9.9800 hx         1 QEH       0.064200
     80 H192         3.8980    -1.3980    11.5580 hx         1 QEH       0.064200
     81 H201         3.4300     0.8410    12.0060 hx         1 QEH       0.070811
     82 H202         3.1540     1.5790    10.4220 hx         1 QEH       0.070811
     83 H203         4.5380     2.0800    11.4020 hx         1 QEH       0.070811
     84 H211         6.5390     1.0120    11.1810 hx         1 QEH       0.070811
     85 H212         6.6000    -0.7070    10.7700 hx         1 QEH       0.070811
     86 H213         5.7990    -0.1810    12.2570 hx         1 QEH       0.070811
     87 H221         4.1460     1.0870     8.6860 hx         1 QEH       0.070811
     88 H222         5.2020    -0.3230     8.5190 hx         1 QEH       0.070811
     89 H223         5.8700     1.2230     9.0590 hx         1 QEH       0.070811
@<TRIPOS>BOND
     1     1     2 2   
     2     2     3 1   
     3     2    14 1   
     4     3     4 1   
     5     4     5 1   
     6     4    71 1   
     7     4    72 1   
     8     5     6 1   
     9     5     7 1   
    10     5    73 1   
    11     6    74 1   
    12     7     8 1   
    13     7    75 1   
    14     7    76 1   
    15     8     9 1   
    16     9    10 1   
    17     9    11 1   
    18     9    12 1   
    19    11    13 1   
    20    13    31 1   
    21    13    77 1   
    22    13    78 1   
    23    14    15 1   
    24    14    69 1   
    25    14    70 1   
    26    15    16 1   
    27    15    67 1   
    28    15    68 1   
    29    16    17 1   
    30    16    65 1   
    31    16    66 1   
    32    17    18 1   
    33    17    63 1   
    34    17    64 1   
    35    18    19 1   
    36    18    61 1   
    37    18    62 1   
    38    19    20 1   
    39    19    59 1   
    40    19    60 1   
    41    20    21 1   
    42    20    57 1   
    43    20    58 1   
    44    21    22 1   
    45    21    55 1   
    46    21    56 1   
    47    22    23 1   
    48    22    53 1   
    49    22    54 1   
    50    23    24 1   
    51    23    51 1   
    52    23    52 1   
    53    24    25 1   
    54    24    49 1   
    55    24    50 1   
    56    25    26 1   
    57    25    47 1   
    58    25    48 1   
    59    26    27 1   
    60    26    45 1   
    61    26    46 1   
    62    27    28 1   
    63    27    43 1   
    64    27    44 1   
    65    28    29 1   
    66    28    41 1   
    67    28    42 1   
    68    29    30 1   
    69    29    39 1   
    70    29    40 1   
    71    30    36 1   
    72    30    37 1   
    73    30    38 1   
    74    31    34 1   
    75    31    79 1   
    76    31    80 1   
    77    32    34 1   
    78    32    81 1   
    79    32    82 1   
    80    32    83 1   
    81    33    34 1   
    82    33    84 1   
    83    33    85 1   
    84    33    86 1   
    85    34    35 1   
    86    35    87 1   
    87    35    88 1   
    88    35    89 1   
@<TRIPOS>SUBSTRUCTURE
     1 QEH         1 TEMP              0 ****  ****    0 ROOT
