@<TRIPOS>MOLECULE
molecule
   36    38     1     0     0
SMALL
bcc


@<TRIPOS>ATOM
      1 C1           0.0000     0.0000     0.0000 c3         1 QEI       0.163700
      2 C2           1.5450     0.0000     0.0000 c3         1 QEI       0.068100
      3 C3          -0.3840    -0.6090     1.3290 c2         1 QEI      -0.133200
      4 C4           1.8520     0.0000     1.5170 c3         1 QEI       0.098300
      5 C5           0.6260    -0.6090     2.1560 c2         1 QEI      -0.183200
      6 C9          -2.9180    -2.5960    -2.5270 cc         1 QEI      -0.181600
      7 C10         -3.2290    -2.9970    -3.8340 cd         1 QEI       0.132100
      8 C11         -3.1800    -3.4790    -1.4570 c          1 QEI       0.732100
      9 O1           2.0590     1.1770    -0.6270 oh         1 QEI      -0.569800
     10 O2           2.0460     1.3350     1.9840 oh         1 QEI      -0.542800
     11 N1          -0.5120    -0.8200    -1.1050 n7         1 QEI      -0.808200
     12 C7          -2.3510    -1.2530    -2.6340 cc         1 QEI      -0.075300
     13 C8          -2.3530    -0.9360    -3.9400 cd         1 QEI      -0.074300
     14 N2          -2.8830    -1.9730    -4.6650 na         1 QEI      -0.124100
     15 N3          -3.7670    -4.2100    -4.0340 nd         1 QEI      -0.560100
     16 C12         -4.0060    -5.0230    -3.0310 cc         1 QEI       0.451800
     17 N5          -4.5570    -6.2530    -3.2900 nz         1 QEI      -0.725600
     18 N4          -3.7240    -4.6850    -1.7400 ns         1 QEI      -0.471400
     19 H1          -0.3750     1.0140    -0.0700 h1         1 QEI       0.071700
     20 H2           1.9300    -0.8970    -0.4700 h1         1 QEI       0.063700
     21 H3          -1.4420    -0.7860     1.4820 ha         1 QEI       0.151000
     22 H4           2.5350    -0.7710     1.1820 h1         1 QEI       0.078700
     23 H5           0.5380    -0.8750     3.2020 ha         1 QEI       0.150000
     24 HO1          2.6440     0.7140    -0.0500 ho         1 QEI       0.426000
     25 HO2          2.6800     1.3350     2.6820 ho         1 QEI       0.412000
     26 HN1          0.1040    -0.7450    -1.8900 hn         1 QEI       0.356800
     27 H8          -1.9910    -0.0030    -4.3560 h4         1 QEI       0.206000
     28 HN2         -2.9920    -1.9800    -5.6600 hn         1 QEI       0.324700
     29 HN5         -4.7080    -6.3500    -4.2740 hn         1 QEI       0.474800
     30 HN5A        -5.4310    -6.3350    -2.8080 hn         1 QEI       0.474800
     31 HN4         -3.9190    -5.3300    -1.0010 hn         1 QEI       0.342500
     32 C6          -1.8610    -0.3910    -1.5000 c3         1 QEI       0.225100
     33 H6          -2.5320    -0.4890    -0.6550 h1         1 QEI       0.058200
     34 H6A         -1.8310     0.6440    -1.8190 h1         1 QEI       0.058200
     35 H53         -4.0180    -6.9620    -2.8340 hn         1 QEI       0.474800
     36 O3          -2.9220    -3.1650    -0.3080 o          1 QEI      -0.547500
@<TRIPOS>BOND
     1     1     2 1
     2     1     3 1
     3     1    11 1
     4     2     4 1
     5     2     9 1
     6     3     5 2
     7     4     5 1
     8     4    10 1
     9    32    11 1
    10    32    12 1
    11     6     7 2
    12     6     8 1
    13     6    12 1
    14     7    14 1
    15     7    15 1
    16     8    18 1
    17     8    36 2
    18    12    13 2
    19    13    14 1
    20    15    16 2
    21    16    17 1
    22    16    18 1
    23     1    19 1
    24     2    20 1
    25     3    21 1
    26     4    22 1
    27     5    23 1
    28    32    33 1
    29    32    34 1
    30     9    24 1
    31    10    25 1
    32    11    26 1
    33    13    27 1
    34    14    28 1
    35    17    29 1
    36    17    30 1
    37    18    31 1
    38    35    17 1
@<TRIPOS>SUBSTRUCTURE
     1 QEI         1 TEMP              0 ****  ****    0 ROOT
