@<TRIPOS>MOLECULE
QEI
   36    39     1     0     0
SMALL
bcc


@<TRIPOS>ATOM
      1 C1           0.0000     0.0000     0.0000 c3         1 QEI      -0.087000
      2 C2           1.5450     0.0000     0.0000 DU         1 QEI      -0.009000
      3 C3          -0.3840    -0.6090     1.3290 c2         1 QEI      -0.112000
      4 C4           1.8520     0.0000     1.5170 c3         1 QEI       0.031000
      5 C5           0.6260    -0.6090     2.1560 c2         1 QEI      -0.160000
      6 C9          -2.9180    -2.5960    -2.5270 c2         1 QEI      -0.166000
      7 C10         -3.2290    -2.9970    -3.8340 c2         1 QEI      -0.264000
      8 C11         -3.1800    -3.4790    -1.4570 c2         1 QEI       0.279000
      9 O1           2.0590     1.1770    -0.6270 oh         1 QEI      -0.316000
     10 O2           2.0460     1.3350     1.9840 oh         1 QEI      -0.247000
     11 N1          -0.5120    -0.8200    -1.1050 n7         1 QEI      -0.051000
     12 C7          -2.3510    -1.2530    -2.6340 c2         1 QEI      -0.039000
     13 C8          -2.3530    -0.9360    -3.9400 c2         1 QEI      -0.232000
     14 N2          -2.8830    -1.9730    -4.6650 na         1 QEI       0.471000
     15 N3          -3.7670    -4.2100    -4.0340 n2         1 QEI       0.078000
     16 C12         -4.0060    -5.0230    -3.0310 c2         1 QEI      -0.469000
     17 N5          -4.5570    -6.2530    -3.2900 nz         1 QEI       0.992000
     18 N4          -3.7240    -4.6850    -1.7400 ns         1 QEI       0.152000
     19 H1          -0.3750     1.0140    -0.0700 h1         1 QEI       0.089000
     20 H2           1.9300    -0.8970    -0.4700 ha         1 QEI       0.072000
     21 H3          -1.4420    -0.7860     1.4820 ha         1 QEI       0.124000
     22 H4           2.5350    -0.7710     1.1820 h1         1 QEI       0.085000
     23 H5           0.5380    -0.8750     3.2020 ha         1 QEI       0.123000
     24 HO1          2.6440     0.7140    -0.0500 DU         1 QEI       0.234000
     25 HO2          2.6800     1.3350     2.6820 ho         1 QEI       0.195000
     26 HN1          0.1040    -0.7450    -1.8900 hn         1 QEI       0.052000
     27 H8          -1.9910    -0.0030    -4.3560 h4         1 QEI       0.172000
     28 HN2         -2.9920    -1.9800    -5.6600 hn         1 QEI       0.078000
     29 HN5         -4.7080    -6.3500    -4.2740 hn         1 QEI       0.008667
     30 HN5A        -5.4310    -6.3350    -2.8080 hn         1 QEI       0.008667
     31 HN4         -3.9190    -5.3300    -1.0010 hn         1 QEI       0.100000
     32 C6          -1.8610    -0.3910    -1.5000 c3         1 QEI      -0.022000
     33 H6          -2.5320    -0.4890    -0.6550 h1         1 QEI       0.067000
     34 H6A         -1.8310     0.6440    -1.8190 h1         1 QEI       0.067000
     35 H53         -4.0180    -6.9620    -2.8340 hn         1 QEI       0.008667
     36 O3          -2.9220    -3.1650    -0.3080 o          1 QEI      -0.313000
@<TRIPOS>BOND
     1     1     2 1   
     2     1     3 1   
     3     1    11 1   
     4     1    19 1   
     5     2     4 1   
     6     2     9 1   
     7     2    20 1   
     8     2    24 1   
     9     3     5 1   
    10     3    21 1   
    11     4     5 1   
    12     4    10 1   
    13     4    22 1   
    14     5    23 1   
    15     6     7 1   
    16     6     8 1   
    17     6    12 1   
    18     7    14 1   
    19     7    15 1   
    20     8    18 1   
    21     8    36 1   
    22     9    24 1   
    23    10    25 1   
    24    11    26 1   
    25    11    32 1   
    26    12    13 1   
    27    12    32 1   
    28    13    14 1   
    29    13    27 1   
    30    14    28 1   
    31    15    16 1   
    32    16    17 1   
    33    16    18 1   
    34    17    29 1   
    35    17    30 1   
    36    17    35 1   
    37    18    31 1   
    38    32    33 1   
    39    32    34 1   
@<TRIPOS>SUBSTRUCTURE
     1 QEI         1 TEMP              0 ****  ****    0 ROOT
