@<TRIPOS>MOLECULE
QEJ
   15    15     1     0     0
SMALL
bcc


@<TRIPOS>ATOM
      1 C1           0.0000     0.0000     0.0000 c1         1 QEJ       0.157700
      2 N2          -1.1360    -0.0170     0.0100 n1         1 QEJ      -0.371800
      3 CA           1.4720     0.0000     0.0000 c3         1 QEJ       0.250600
      4 CB           1.9970     0.0000     1.4470 c3         1 QEJ      -0.035400
      5 CG           2.7960     1.3150     1.5870 c3         1 QEJ      -0.024400
      6 CD           2.2090     2.2000     0.4590 c3         1 QEJ       0.140800
      7 N            1.9760     1.2330    -0.6440 n7         1 QEJ      -0.579200
      8 HA           1.8470    -0.8690    -0.5270 h1         1 QEJ       0.052700
      9 HB2          1.1690    -0.0110     2.1460 hc         1 QEJ       0.028200
     10 HB3          2.6460    -0.8520     1.6100 hc         1 QEJ       0.028200
     11 HG2          2.6220     1.7670     2.5560 hc         1 QEJ       0.025200
     12 HG3          3.8530     1.1390     1.4230 hc         1 QEJ       0.025200
     13 HD2          1.2750     2.6490     0.7740 h1         1 QEJ       0.017200
     14 HD3          2.9230     2.9560     0.1570 h1         1 QEJ       0.017200
     15 H            1.2780     1.5950    -1.2640 hn         1 QEJ       0.267800
@<TRIPOS>BOND
     1     1     2 3   
     2     1     3 1   
     3     3     4 1   
     4     3     7 1   
     5     3     8 1   
     6     4     5 1   
     7     4     9 1   
     8     4    10 1   
     9     5     6 1   
    10     5    11 1   
    11     5    12 1   
    12     6     7 1   
    13     6    13 1   
    14     6    14 1   
    15     7    15 1   
@<TRIPOS>SUBSTRUCTURE
     1 QEJ         1 TEMP              0 ****  ****    0 ROOT
