@<TRIPOS>MOLECULE
molecule
   51    53     1     0     0
SMALL
bcc


@<TRIPOS>ATOM
      1 C1           0.0000     0.0000     0.0000 ca         1 QEL      -0.132000
      2 N1           2.1550     3.4950     6.1590 n3         1 QEL      -0.718600
      3 O1           2.2790     3.9750     9.0050 oh         1 QEL      -0.585800
      4 C2           4.7660     7.9930     8.8760 ca         1 QEL      -0.157000
      5 C3           2.5870     7.9960     9.8870 ca         1 QEL      -0.157000
      6 C4           1.3820    -0.0010     2.3950 ca         1 QEL      -0.080300
      7 C5           2.0730     0.0000     1.1970 ca         1 QEL      -0.127000
      8 C6           1.3820     0.0000     0.0000 ca         1 QEL      -0.126500
      9 C7           2.1350    -0.0010     3.7000 c3         1 QEL      -0.032100
     10 C8           2.3890     1.4410     4.1420 c3         1 QEL      -0.067700
     11 C9           1.0540     2.1240     4.4540 c3         1 QEL      -0.075900
     12 C01         -0.6910    -0.0010     1.1970 ca         1 QEL      -0.126500
     13 C02         -0.0000    -0.0010     2.3940 ca         1 QEL      -0.127000
     14 C10          1.3180     3.5460     4.9530 c3         1 QEL       0.161800
     15 C11          3.4600     2.8870     5.8740 c3         1 QEL       0.161800
     16 C12          3.2610     1.4450     5.4010 c3         1 QEL      -0.075900
     17 C13          2.3140     4.8320     6.7460 c3         1 QEL       0.179500
     18 C14          3.0650     4.7200     8.0740 c3         1 QEL       0.199400
     19 C15          3.3220     6.1000     8.6240 ca         1 QEL      -0.133300
     20 C16          4.5280     6.7280     8.3740 ca         1 QEL      -0.100000
     21 C18          3.7970     8.6300     9.6370 ca         1 QEL       0.108100
     22 C19          2.3520     6.7340     9.3780 ca         1 QEL      -0.100000
     23 C24          0.9360     5.4490     6.9900 c3         1 QEL      -0.092100
     24 H1          -0.5420     0.0000    -0.9380 ha         1 QEL       0.128000
     25 HO2          3.7710    10.5190     9.5030 ho         1 QEL       0.419000
     26 H3           1.8280     8.4920    10.4800 ha         1 QEL       0.141000
     27 H5           3.1570    -0.0000     1.1980 ha         1 QEL       0.130500
     28 H6           1.9240     0.0010    -0.9380 ha         1 QEL       0.128500
     29 H7           3.0820    -0.5110     3.5700 hc         1 QEL       0.050200
     30 H7A          1.5510    -0.5130     4.4550 hc         1 QEL       0.050200
     31 H8           2.8950     1.9830     3.3520 hc         1 QEL       0.051700
     32 H9           0.4510     2.1630     3.5550 hc         1 QEL       0.051450
     33 H9A          0.5330     1.5630     5.2210 hc         1 QEL       0.051450
     34 H01         -1.7750    -0.0000     1.1970 ha         1 QEL       0.128500
     35 H02         -0.5420    -0.0010     3.3320 ha         1 QEL       0.130500
     36 H10          1.8300     4.1080     4.1820 h1         1 QEL       0.033200
     37 H10A         0.3750     4.0240     5.1900 h1         1 QEL       0.033200
     38 H11          4.0630     2.8900     6.7740 h1         1 QEL       0.033200
     39 H11A         3.9590     3.4530     5.0970 h1         1 QEL       0.033200
     40 H12          4.2240     1.0040     5.1740 hc         1 QEL       0.051450
     41 H12A         2.7710     0.8750     6.1810 hc         1 QEL       0.051450
     42 H13          2.8760     5.4610     6.0660 h1         1 QEL       0.029700
     43 H16          5.2850     6.2310     7.7790 ha         1 QEL       0.141500
     44 H19          1.4080     6.2390     9.5720 ha         1 QEL       0.141500
     45 H24          0.4850     5.7130     6.0410 hc         1 QEL       0.046033
     46 H24A         0.3050     4.7320     7.5020 hc         1 QEL       0.046033
     47 H24B         1.0410     6.3380     7.6000 hc         1 QEL       0.046033
     48 H26          2.8470     3.5310     9.6120 ho         1 QEL       0.401000
     49 H27          4.0100     4.2140     7.9130 h1         1 QEL       0.038700
     50 H2           5.7110     8.4850     8.6800 ha         1 QEL       0.141000
     51 O2           4.0300     9.8710    10.1370 oh         1 QEL      -0.522100
@<TRIPOS>BOND
     1     1     8 ar
     2     1    12 ar
     3     1    24 1
     4     2    15 1
     5     4    50 1
     6    51    25 1
     7     5    21 ar
     8     5    26 1
     9     6     9 1
    10     7     6 ar
    11     7    27 1
    12     8     7 ar
    13     8    28 1
    14     9    29 1
    15     9    30 1
    16    10     9 1
    17    10    16 1
    18    10    31 1
    19    11    10 1
    20    11    32 1
    21    11    33 1
    22    12    13 ar
    23    12    34 1
    24    13     6 ar
    25    13    35 1
    26    14     2 1
    27    14    11 1
    28    14    36 1
    29    14    37 1
    30    15    16 1
    31    15    38 1
    32    15    39 1
    33    16    40 1
    34    16    41 1
    35    17     2 1
    36    17    18 1
    37    17    42 1
    38    18     3 1
    39    18    19 1
    40    19    20 ar
    41    20     4 ar
    42    20    43 1
    43    21     4 ar
    44    21    51 1
    45    22     5 ar
    46    22    19 ar
    47    22    44 1
    48    23    17 1
    49    23    45 1
    50    23    46 1
    51    23    47 1
    52     3    48 1
    53    18    49 1
@<TRIPOS>SUBSTRUCTURE
     1 QEL         1 TEMP              0 ****  ****    0 ROOT
