@<TRIPOS>MOLECULE
molecule
   54    56     1     0     0
SMALL
bcc


@<TRIPOS>ATOM
      1 C            0.0000     0.0000     0.0000 ca         1 QEM      -0.099500
      2 N            3.6030     2.8300    -3.3600 n3         1 QEM      -0.728600
      3 O           -0.6730    -0.0030     3.5750 oh         1 QEM      -0.523100
      4 C01          2.2290     8.1180    -4.4530 ca         1 QEM      -0.127000
      5 O01          3.2670    -0.8640    -1.2060 oh         1 QEM      -0.601800
      6 C02          2.9230     7.5210    -5.4880 ca         1 QEM      -0.080300
      7 C03          2.5160     7.7150    -6.7950 ca         1 QEM      -0.127000
      8 C04          1.4160     8.5080    -7.0660 ca         1 QEM      -0.126500
      9 C05          0.7230     9.1050    -6.0310 ca         1 QEM      -0.133000
     10 C06          1.1280     8.9090    -4.7240 ca         1 QEM      -0.126500
     11 C07          4.1220     6.6560    -5.1930 c3         1 QEM      -0.032100
     12 C08          3.6710     5.2080    -4.9980 c3         1 QEM      -0.067700
     13 C09          2.7920     5.1090    -3.7480 c3         1 QEM      -0.076400
     14 C10          2.3950     3.6480    -3.5240 c3         1 QEM       0.163300
     15 C11          4.4410     2.8720    -4.5660 c3         1 QEM       0.163300
     16 C12          4.8990     4.3100    -4.8220 c3         1 QEM      -0.076400
     17 C13          3.2590     1.4470    -3.0070 c3         1 QEM       0.165800
     18 C14          2.6060     1.4220    -1.6230 c3         1 QEM      -0.064700
     19 C15          2.1350     0.0010    -1.3070 c3         1 QEM       0.196400
     20 C16          1.3830     0.0000     0.0000 ca         1 QEM      -0.126300
     21 C18          2.0780     0.0000     1.1960 ca         1 QEM      -0.099500
     22 C19          1.3910    -0.0010     2.3940 ca         1 QEM      -0.157000
     23 C20          0.0040    -0.0020     2.3980 ca         1 QEM       0.107100
     24 C21         -0.6910     0.0050     1.1960 ca         1 QEM      -0.157000
     25 H           -0.5420     0.0060    -0.9380 ha         1 QEM       0.141000
     26 HO          -0.8530    -0.8920     3.8330 ho         1 QEM       0.419000
     27 HO01         3.0370    -1.7210    -1.5230 ho         1 QEM       0.402000
     28 H03          3.0600     7.2470    -7.6070 ha         1 QEM       0.130500
     29 H04          1.0980     8.6610    -8.0900 ha         1 QEM       0.128500
     30 H05         -0.1390     9.7250    -6.2430 ha         1 QEM       0.128000
     31 H06          0.5840     9.3780    -3.9130 ha         1 QEM       0.128500
     32 H07          4.6070     7.0080    -4.2910 hc         1 QEM       0.049700
     33 H07A         4.8180     6.7090    -6.0220 hc         1 QEM       0.049700
     34 H08          3.1060     4.8800    -5.8620 hc         1 QEM       0.052700
     35 H09          1.9000     5.7080    -3.8860 hc         1 QEM       0.050950
     36 H09A         3.3450     5.4680    -2.8880 hc         1 QEM       0.050950
     37 H10          1.7860     3.5740    -2.6310 h1         1 QEM       0.033450
     38 H10A         1.8330     3.2930    -4.3800 h1         1 QEM       0.033450
     39 H11          3.8660     2.5210    -5.4150 h1         1 QEM       0.033450
     40 H11A         5.3080     2.2380    -4.4240 h1         1 QEM       0.033450
     41 H12          5.5000     4.3420    -5.7220 hc         1 QEM       0.050950
     42 H12A         5.4820     4.6570    -3.9780 hc         1 QEM       0.050950
     43 H13          2.5690     1.0480    -3.7400 h1         1 QEM       0.036700
     44 H13A         4.1590     0.8430    -2.9920 h1         1 QEM       0.036700
     45 H14          1.7570     2.0940    -1.6130 hc         1 QEM       0.060700
     46 H15          1.4830    -0.3480    -2.0990 h1         1 QEM       0.033700
     47 H18          3.1610     0.0000     1.1920 ha         1 QEM       0.141000
     48 H19          1.9360    -0.0010     3.3300 ha         1 QEM       0.140000
     49 H21         -1.7740     0.0050     1.1970 ha         1 QEM       0.140000
     50 C17          3.6230     1.8680    -0.5710 c3         1 QEM      -0.087100
     51 H01          2.5470     7.9650    -3.4280 ha         1 QEM       0.130500
     52 H17          4.2580     1.0320    -0.3050 hc         1 QEM       0.045700
     53 H17A         4.2300     2.6700    -0.9730 hc         1 QEM       0.045700
     54 H17B         3.1000     2.2190     0.3110 hc         1 QEM       0.045700
@<TRIPOS>BOND
     1    24     1 ar
     2     1    20 ar
     3     1    25 1
     4    14     2 1
     5     2    17 1
     6     2    15 1
     7     3    23 1
     8     3    26 1
     9     6     4 ar
    10     4    10 ar
    11     4    51 1
    12    19     5 1
    13     5    27 1
    14    11     6 1
    15     6     7 ar
    16     7     8 ar
    17     7    28 1
    18     8     9 ar
    19     8    29 1
    20    10     9 ar
    21     9    30 1
    22    10    31 1
    23    11    12 1
    24    11    32 1
    25    11    33 1
    26    13    12 1
    27    12    16 1
    28    12    34 1
    29    13    14 1
    30    13    35 1
    31    13    36 1
    32    14    37 1
    33    14    38 1
    34    16    15 1
    35    15    39 1
    36    15    40 1
    37    16    41 1
    38    16    42 1
    39    18    17 1
    40    17    43 1
    41    17    44 1
    42    50    18 1
    43    18    19 1
    44    18    45 1
    45    20    19 1
    46    19    46 1
    47    20    21 ar
    48    50    52 1
    49    50    53 1
    50    50    54 1
    51    22    21 ar
    52    21    47 1
    53    23    22 ar
    54    22    48 1
    55    24    23 ar
    56    24    49 1
@<TRIPOS>SUBSTRUCTURE
     1 QEM         1 TEMP              0 ****  ****    0 ROOT
