@<TRIPOS>MOLECULE
molecule
   18    17     1     0     0
SMALL
bcc


@<TRIPOS>ATOM
      1 OA4          0.0000     0.0000     0.0000 oh         1 QFH      -0.576800
      2 CA5          1.9380     1.2500    -0.7210 c3         1 QFH      -0.126100
      3 CA3          1.4280     1.2490     2.1640 c3         1 QFH      -0.067100
      4 CA2          1.9390     0.0000     1.4420 c3         1 QFH       0.053800
      5 OA3          3.3680     0.0010     1.4420 oh         1 QFH      -0.629800
      6 CA1          1.4380    -1.2300     2.1530 c          1 QFH       0.867600
      7 C3           1.4290     0.0000     0.0000 c3         1 QFH       0.149100
      8 OA1          2.1110    -1.7190     3.2060 o          1 QFH      -0.833300
      9 OA2          0.4280    -1.7760     1.7760 o          1 QFH      -0.833300
     10 HA4         -0.3140    -0.3610    -0.8120 ho         1 QFH       0.376000
     11 H3           1.7900    -0.8840    -0.5110 h1         1 QFH       0.025700
     12 HA51         2.9620     1.4450    -0.4260 hc         1 QFH       0.027700
     13 HA52         1.3180     2.0980    -0.4560 hc         1 QFH       0.027700
     14 HA53         1.8950     1.0920    -1.7920 hc         1 QFH       0.027700
     15 HA31         1.5180     1.1100     3.2350 hc         1 QFH       0.031367
     16 HA32         2.0160     2.1070     1.8610 hc         1 QFH       0.031367
     17 HA33         0.3890     1.4150     1.9080 hc         1 QFH       0.031367
     18 HA3          3.6830    -0.8730     1.6020 ho         1 QFH       0.416000
@<TRIPOS>BOND
     1     1     7 1
     2     2     7 1
     3     3     4 1
     4     4     5 1
     5     4     6 1
     6     4     7 1
     7     6     9 1
     8     6     8 1
     9     1    10 1
    10     7    11 1
    11     2    12 1
    12     2    13 1
    13     2    14 1
    14     3    15 1
    15     3    16 1
    16     3    17 1
    17     5    18 1
@<TRIPOS>SUBSTRUCTURE
     1 QFH         1 TEMP              0 ****  ****    0 ROOT
