@<TRIPOS>MOLECULE
QFH
   18    17     1     0     0
SMALL
bcc


@<TRIPOS>ATOM
      1 OA4         0.1770    0.1090   -0.3410 oh        1 QFH     -0.651800
      2 CA5         2.1870    1.2650   -0.7840 c3        1 QFH     -0.085100
      3 CA3         1.1600    1.2440    2.1520 c3        1 QFH     -0.077100
      4 CA2         1.8600    0.0910    1.4540 c3        1 QFH     -0.008200
      5 OA3         3.2660    0.2550    1.6140 oh        1 QFH     -0.640800
      6 CA1         1.3830   -1.2560    2.0830 c         1 QFH      0.896600
      7 C3          1.5690    0.0790   -0.0640 c3        1 QFH      0.163100
      8 OA1         2.2400   -1.9130    2.7370 o         1 QFH     -0.831300
      9 OA2         0.1850   -1.6120    1.9040 o         1 QFH     -0.831300
     10 HA4        -0.2480   -0.5120    0.2740 ho        1 QFH      0.447000
     11 H3          1.9980   -0.8770   -0.4830 h1        1 QFH      0.023700
     12 HA51        3.2690    1.3300   -0.5200 hc        1 QFH      0.028033
     13 HA52        1.6780    2.2100   -0.4800 hc        1 QFH      0.028033
     14 HA53        2.0770    1.1430   -1.8870 hc        1 QFH      0.028033
     15 HA31        1.3530    1.1920    3.2500 hc        1 QFH      0.027367
     16 HA32        1.5380    2.2220    1.7700 hc        1 QFH      0.027367
     17 HA33        0.0620    1.1700    1.9660 hc        1 QFH      0.027367
     18 HA3         3.5790   -0.4930    2.1470 ho        1 QFH      0.427000
@<TRIPOS>BOND
     1    1    7 1   
     2    1   10 1   
     3    2    7 1   
     4    2   12 1   
     5    2   13 1   
     6    2   14 1   
     7    3    4 1   
     8    3   15 1   
     9    3   16 1   
    10    3   17 1   
    11    4    5 1   
    12    4    6 1   
    13    4    7 1   
    14    5   18 1   
    15    6    8 1   
    16    6    9 1   
    17    7   11 1   
@<TRIPOS>SUBSTRUCTURE
     1 QFH         1 TEMP              0 ****  ****    0 ROOT
