@<TRIPOS>MOLECULE
QGA
   58    58     1     0     0
SMALL
bcc


@<TRIPOS>ATOM
      1 C9           0.0000     0.0000     0.0000 c3         1 QGA      -0.018900
      2 C12          1.5250     0.0000     0.0000 c3         1 QGA      -0.021400
      3 C15          2.0860     0.0000     1.4190 c3         1 QGA      -0.018900
      4 C18          1.5270    -1.1550     2.2460 c3         1 QGA      -0.020900
      5 C21         -0.0080    -1.1540     2.2550 c3         1 QGA      -0.048700
      6 C24         -0.5430    -2.3470     3.0430 c3         1 QGA      -0.010400
      7 C27         -2.0660    -2.2970     3.1710 c3         1 QGA      -0.112400
      8 C30         -2.6240    -3.4600     3.9800 c          1 QGA       0.610100
      9 N33         -4.0180    -3.4970     4.1500 n          1 QGA      -0.171800
     10 O34         -1.8680    -4.3140     4.4510 o          1 QGA      -0.603100
     11 C35         -4.9480    -2.5010     3.6060 c3         1 QGA       0.043000
     12 C36         -4.6260    -4.5750     4.8990 c3         1 QGA       0.036000
     13 C37         -4.7170    -4.1920     6.3800 c3         1 QGA       0.155100
     14 C40         -5.3650    -5.3100     7.2270 c3         1 QGA       0.163100
     15 C41         -6.7980    -5.6760     6.7750 c3         1 QGA       0.175100
     16 C42         -7.4410    -6.7850     7.6360 c3         1 QGA       0.153100
     17 C43         -7.5380    -6.4260     9.1190 c3         1 QGA       0.204400
     18 O44         -8.1030    -7.5040     9.8480 oh         1 QGA      -0.593800
     19 O47         -3.4010    -3.9390     6.8650 oh         1 QGA      -0.559800
     20 O49         -4.5440    -6.4750     7.1640 oh         1 QGA      -0.570800
     21 O51         -7.6380    -4.5240     6.8290 oh         1 QGA      -0.597800
     22 O53         -8.7540    -7.0560     7.1490 oh         1 QGA      -0.591800
     23 C60         -5.3950    -2.9260     2.2200 c3         1 QGA       0.200400
     24 O63         -6.0160    -4.2040     2.2960 oh         1 QGA      -0.589800
     25 C1          -0.5630    -1.1550     0.8250 c3         1 QGA      -0.020900
     26 H9C1        -0.3520     0.9350     0.4180 hc         1 QGA       0.009700
     27 H9C2        -0.3520    -0.0920    -1.0200 hc         1 QGA       0.009700
     28 H121         1.8780    -0.8840    -0.5180 hc         1 QGA       0.011200
     29 H122         1.8770     0.8840    -0.5180 hc         1 QGA       0.011200
     30 H1C1        -1.6410    -1.0660     0.8660 hc         1 QGA       0.014200
     31 H1C2        -0.2990    -2.0910     0.3460 hc         1 QGA       0.014200
     32 H151         3.1650    -0.0920     1.3710 hc         1 QGA       0.009700
     33 H152         1.8270     0.9350     1.9000 hc         1 QGA       0.009700
     34 H181         1.8850    -1.0650     3.2650 hc         1 QGA       0.014200
     35 H182         1.8750    -2.0910     1.8260 hc         1 QGA       0.014200
     36 H21         -0.3400    -0.2450     2.7430 hc         1 QGA       0.019700
     37 H241        -0.1050    -2.3420     4.0340 hc         1 QGA       0.029700
     38 H242        -0.2610    -3.2620     2.5360 hc         1 QGA       0.029700
     39 H271        -2.5010    -2.3220     2.1790 hc         1 QGA       0.027700
     40 H272        -2.3460    -1.3690     3.6530 hc         1 QGA       0.027700
     41 H351        -5.8120    -2.4220     4.2550 h1         1 QGA       0.029200
     42 H352        -4.4520    -1.5400     3.5460 h1         1 QGA       0.029200
     43 H361        -5.6210    -4.7640     4.5140 h1         1 QGA       0.054200
     44 H362        -4.0240    -5.4700     4.7940 h1         1 QGA       0.054200
     45 H601        -6.1020    -2.2040     1.8310 h1         1 QGA      -0.008800
     46 H602        -4.5350    -2.9810     1.5640 h1         1 QGA      -0.008800
     47 H37         -5.3090    -3.2900     6.4760 h1         1 QGA       0.009700
     48 H40         -5.4070    -4.9770     8.2570 h1         1 QGA       0.000700
     49 H47         -3.4490    -3.4120     7.6450 ho         1 QGA       0.376000
     50 H41         -6.7560    -6.0210     5.7490 h1         1 QGA       0.022700
     51 H49         -4.1230    -6.6090     7.9970 ho         1 QGA       0.395000
     52 H42         -6.8440    -7.6840     7.5380 h1         1 QGA       0.019700
     53 H51         -8.4170    -4.6780     6.3210 ho         1 QGA       0.410000
     54 H431        -6.5470    -6.2140     9.5020 h1         1 QGA      -0.005300
     55 H432        -8.1620    -5.5480     9.2350 h1         1 QGA      -0.005300
     56 H53         -8.8800    -7.9880     7.0860 ho         1 QGA       0.402000
     57 H44         -8.2360    -7.2420    10.7440 ho         1 QGA       0.394000
     58 H63         -6.5270    -4.3520     1.5170 ho         1 QGA       0.392000
@<TRIPOS>BOND
     1     1     2 1   
     2     1    25 1   
     3     1    26 1   
     4     1    27 1   
     5     2     3 1   
     6     2    28 1   
     7     2    29 1   
     8     3     4 1   
     9     3    32 1   
    10     3    33 1   
    11     4     5 1   
    12     4    34 1   
    13     4    35 1   
    14     5     6 1   
    15     5    25 1   
    16     5    36 1   
    17     6     7 1   
    18     6    37 1   
    19     6    38 1   
    20     7     8 1   
    21     7    39 1   
    22     7    40 1   
    23     8     9 1   
    24     8    10 2   
    25     9    11 1   
    26     9    12 1   
    27    11    23 1   
    28    11    41 1   
    29    11    42 1   
    30    12    13 1   
    31    12    43 1   
    32    12    44 1   
    33    13    14 1   
    34    13    19 1   
    35    13    47 1   
    36    14    15 1   
    37    14    20 1   
    38    14    48 1   
    39    15    16 1   
    40    15    21 1   
    41    15    50 1   
    42    16    17 1   
    43    16    22 1   
    44    16    52 1   
    45    17    18 1   
    46    17    54 1   
    47    17    55 1   
    48    18    57 1   
    49    19    49 1   
    50    20    51 1   
    51    21    53 1   
    52    22    56 1   
    53    23    24 1   
    54    23    45 1   
    55    23    46 1   
    56    24    58 1   
    57    25    30 1   
    58    25    31 1   
@<TRIPOS>SUBSTRUCTURE
     1 QGA         1 TEMP              0 ****  ****    0 ROOT
