@<TRIPOS>MOLECULE
molecule
   65    67     1     0     0
SMALL
bcc


@<TRIPOS>ATOM
      1 C1           0.0000     0.0000     0.0000 c3         1 QGF      -0.085100
      2 Cl1          1.9310     0.5530    14.3190 cl         1 QGF      -0.097400
      3 C2           1.5300     0.0000     0.0000 c3         1 QGF      -0.096000
      4 Cl2          6.2290     2.9440    12.0830 cl         1 QGF      -0.101400
      5 C3           2.0390     0.0000     1.4430 c3         1 QGF      -0.075400
      6 C4           3.5590     0.1850     1.4460 c3         1 QGF       0.154400
      7 C5           3.9200     1.4500     0.6650 c3         1 QGF      -0.127100
      8 C6           4.0520     0.3180     2.8880 c3         1 QGF      -0.251600
      9 S7           5.8280     0.6840     2.8880 s6         1 QGF       1.340900
     10 O8           6.5690    -0.4360     2.4240 o          1 QGF      -0.623800
     11 O9           6.0690     1.9860     2.3730 o          1 QGF      -0.623800
     12 N10          6.2260     0.8010     4.4910 n3         1 QGF      -0.820500
     13 C11          6.6620    -0.3840     5.2430 c3         1 QGF       0.237800
     14 C12          5.7900    -0.5230     6.4940 c3         1 QGF      -0.111400
     15 C13          5.8400     0.7820     7.2940 c3         1 QGF       0.151100
     16 C14          5.2850     1.9250     6.4420 c3         1 QGF      -0.111400
     17 C15          6.1570     2.0930     5.1880 c3         1 QGF       0.237800
     18 O16          5.0530     0.6450     8.4780 os         1 QGF      -0.430600
     19 C17          5.5160     1.4310     9.5780 c3         1 QGF       0.183700
     20 C18          4.6180     1.2110    10.7670 ca         1 QGF      -0.081300
     21 C19          3.5410     0.3490    10.6690 ca         1 QGF      -0.088000
     22 C20          2.7160     0.1460    11.7610 ca         1 QGF      -0.123000
     23 C21          2.9670     0.8060    12.9490 ca         1 QGF       0.035400
     24 C23          4.0440     1.6700    13.0480 ca         1 QGF      -0.115000
     25 C24          4.8730     1.8670    11.9580 ca         1 QGF       0.035400
     26 N26          4.1930    -0.9760     0.8180 n          1 QGF      -0.388300
     27 O27          4.9960    -0.8060    -0.3360 oh         1 QGF      -0.370100
     28 C28          4.0140    -2.2070     1.3390 c          1 QGF       0.662900
     29 O29          4.5400    -3.1680     0.8180 o          1 QGF      -0.591100
     30 C30          2.0320    -1.2300    -0.7100 ca         1 QGF       0.676300
     31 N31          2.7890    -1.0880    -1.7810 nb         1 QGF      -0.716500
     32 C32          3.2490    -2.1430    -2.4320 ca         1 QGF       0.439200
     33 C33          2.9250    -3.4130    -1.9730 ca         1 QGF      -0.110700
     34 F34          3.3760    -4.5160    -2.6100 f          1 QGF      -0.127900
     35 C35          2.1240    -3.5210    -0.8420 ca         1 QGF       0.439200
     36 N36          1.7080    -2.4180    -0.2430 nb         1 QGF      -0.716500
     37 H1          -0.3610    -0.7640     0.6780 hc         1 QGF       0.043367
     38 H1A         -0.3610     0.9690     0.3230 hc         1 QGF       0.043367
     39 H1B         -0.3610    -0.2050    -1.0010 hc         1 QGF       0.043367
     40 H2           1.8900     0.8850    -0.5100 hc         1 QGF       0.083700
     41 H3           1.7890    -0.9430     1.9140 hc         1 QGF       0.061200
     42 H3A          1.5750     0.8120     1.9900 hc         1 QGF       0.061200
     43 H5           4.9650     1.6860     0.8240 hc         1 QGF       0.069033
     44 H5A          3.3070     2.2740     1.0080 hc         1 QGF       0.069033
     45 H5B          3.7440     1.2850    -0.3910 hc         1 QGF       0.069033
     46 H6           3.8750    -0.6100     3.4180 h1         1 QGF       0.103700
     47 H6A          3.5180     1.1220     3.3800 h1         1 QGF       0.103700
     48 H11          6.5510    -1.2670     4.6240 h1         1 QGF       0.064450
     49 H11A         7.6990    -0.2670     5.5350 h1         1 QGF       0.064450
     50 H12          4.7670    -0.7260     6.2000 hc         1 QGF       0.057200
     51 H12A         6.1640    -1.3350     7.1060 hc         1 QGF       0.057200
     52 H13          6.8670     1.0000     7.5600 h1         1 QGF       0.042700
     53 H14          5.2990     2.8430     7.0170 hc         1 QGF       0.057200
     54 H14A         4.2690     1.6930     6.1450 hc         1 QGF       0.057200
     55 H15          5.7150     2.8350     4.5350 h1         1 QGF       0.064450
     56 H15A         7.1540     2.4030     5.4790 h1         1 QGF       0.064450
     57 H17          6.5280     1.1370     9.8310 h1         1 QGF       0.045700
     58 H17A         5.5030     2.4790     9.3040 h1         1 QGF       0.045700
     59 H19          3.3440    -0.1680     9.7380 ha         1 QGF       0.163000
     60 H20          1.8720    -0.5290    11.6830 ha         1 QGF       0.149000
     61 H23          4.2580     2.1640    13.9880 ha         1 QGF       0.159000
     62 HO27         5.8660    -1.1280    -0.1640 ho         1 QGF       0.419000
     63 H28          3.3820    -2.3400     2.2080 h5         1 QGF       0.044200
     64 H32          3.8700    -2.0190    -3.3110 h4         1 QGF       0.041600
     65 H35          1.8520    -4.4940    -0.4530 h4         1 QGF       0.041600
@<TRIPOS>BOND
     1     1     3 1
     2     2    23 1
     3     3     5 1
     4     3    30 1
     5     4    25 1
     6     5     6 1
     7     6     7 1
     8     6     8 1
     9     6    26 1
    10     8     9 1
    11     9    10 2
    12     9    11 2
    13     9    12 1
    14    12    13 1
    15    12    17 1
    16    13    14 1
    17    14    15 1
    18    15    16 1
    19    15    18 1
    20    16    17 1
    21    18    19 1
    22    19    20 1
    23    20    21 ar
    24    20    25 ar
    25    21    22 ar
    26    22    23 ar
    27    23    24 ar
    28    24    25 ar
    29    26    27 1
    30    26    28 1
    31    28    29 2
    32    30    31 ar
    33    30    36 ar
    34    31    32 ar
    35    32    33 ar
    36    33    34 1
    37    33    35 ar
    38    35    36 ar
    39     1    37 1
    40     1    38 1
    41     1    39 1
    42     3    40 1
    43     5    41 1
    44     5    42 1
    45     7    43 1
    46     7    44 1
    47     7    45 1
    48     8    46 1
    49     8    47 1
    50    13    48 1
    51    13    49 1
    52    14    50 1
    53    14    51 1
    54    15    52 1
    55    16    53 1
    56    16    54 1
    57    17    55 1
    58    17    56 1
    59    19    57 1
    60    19    58 1
    61    21    59 1
    62    22    60 1
    63    24    61 1
    64    27    62 1
    65    28    63 1
    66    32    64 1
    67    35    65 1
@<TRIPOS>SUBSTRUCTURE
     1 QGF         1 TEMP              0 ****  ****    0 ROOT
