@<TRIPOS>MOLECULE
molecule
   43    45     1     0     0
SMALL
bcc


@<TRIPOS>ATOM
      1 N1           0.0000     0.0000     0.0000 nz         1 QGG      -0.689600
      2 C2           1.3560     0.0000     0.0000 c2         1 QGG       0.208100
      3 N3           2.0280     0.0000     1.1110 ne         1 QGG      -0.575700
      4 C4           1.4850    -0.0730     2.3630 ca         1 QGG       0.566300
      5 N5           0.2580    -0.5000     2.5650 nb         1 QGG      -0.796000
      6 C6          -0.2850    -0.6220     3.7680 ca         1 QGG       0.446200
      7 C7           0.4400    -0.3310     4.8970 ca         1 QGG      -0.039900
      8 Cl8         -0.2990    -0.4790     6.4250 cl         1 QGG      -0.006400
      9 C9           1.7750     0.1190     4.8220 ca         1 QGG       0.002000
     10 C10          2.5480     0.4370     5.9740 ca         1 QGG      -0.104000
     11 C11          3.8050     0.8620     5.8120 ca         1 QGG      -0.017000
     12 C12          4.3310     1.0140     4.5290 ca         1 QGG      -0.268500
     13 C13          3.6280     0.7100     3.4030 ca         1 QGG      -0.026000
     14 C14          2.3230     0.2640     3.5320 ca         1 QGG      -0.091300
     15 S15          5.9570     1.6360     4.4010 sy         1 QGG       1.457200
     16 O16          6.2740     1.9430     3.0370 o          1 QGG      -0.605800
     17 O17          5.8770     2.6000     5.3810 o          1 QGG      -0.605800
     18 N18          6.9460     0.3550     4.8780 n3         1 QGG      -0.774500
     19 C19          7.4100     0.0270     6.2410 c3         1 QGG       0.230800
     20 C20          7.5500    -1.5170     6.2470 c3         1 QGG      -0.101400
     21 C21          8.0320    -1.8690     4.8160 c3         1 QGG      -0.071400
     22 C22          7.4780    -0.6900     3.9960 c3         1 QGG       0.181500
     23 C24          8.5870    -0.1500     3.1490 c          1 QGG       0.870600
     24 O25          9.4060     0.6900     3.5070 o          1 QGG      -0.649300
     25 O26          8.6140    -0.6690     1.9330 o          1 QGG      -0.649300
     26 N27          2.0780     0.0410    -1.1340 nz         1 QGG      -0.689600
     27 H1N1        -0.3340     0.7560     0.5640 hn         1 QGG       0.461633
     28 H1N2        -0.3340     0.1110    -0.9370 hn         1 QGG       0.461633
     29 H271         2.1130     0.9810    -1.4740 hn         1 QGG       0.461633
     30 H272         3.0070    -0.2820    -0.9490 hn         1 QGG       0.461633
     31 H6          -1.3030    -0.9810     3.8630 h4         1 QGG       0.054100
     32 H10          2.1320     0.3150     6.9670 ha         1 QGG       0.170000
     33 H11          4.4060     1.1170     6.6760 ha         1 QGG       0.175000
     34 H13          4.0710     0.8430     2.4230 ha         1 QGG       0.173000
     35 H191         8.3690     0.4920     6.4330 h1         1 QGG       0.063700
     36 H192         6.6770     0.3410     6.9740 h1         1 QGG       0.063700
     37 H22          6.6810    -1.0490     3.3570 h1         1 QGG       0.062700
     38 H201         8.2870    -1.8260     6.9790 hc         1 QGG       0.056200
     39 H202         6.5920    -1.9810     6.4470 hc         1 QGG       0.056200
     40 H211         9.1140    -1.8950     4.7690 hc         1 QGG       0.076200
     41 H212         7.5990    -2.8050     4.4830 hc         1 QGG       0.076200
     42 H131        -0.3340    -0.8730     0.3570 hn         1 QGG       0.461633
     43 H273         1.6850    -0.5920    -1.8020 hn         1 QGG       0.461633
@<TRIPOS>BOND
     1     1     2 1
     2     2     3 2
     3     2    26 1
     4     3     4 1
     5     4     5 ar
     6     4    14 ar
     7     5     6 ar
     8     6     7 ar
     9     7     8 1
    10     7     9 ar
    11     9    10 ar
    12     9    14 ar
    13    10    11 ar
    14    11    12 ar
    15    12    13 ar
    16    12    15 1
    17    13    14 ar
    18    15    16 2
    19    15    17 2
    20    15    18 1
    21    18    19 1
    22    18    22 1
    23    19    20 1
    24    20    21 1
    25    21    22 1
    26    22    23 1
    27    23    24 1
    28    23    25 1
    29     1    27 1
    30     1    28 1
    31    26    29 1
    32    26    30 1
    33     6    31 1
    34    10    32 1
    35    11    33 1
    36    13    34 1
    37    19    35 1
    38    19    36 1
    39    22    37 1
    40    20    38 1
    41    20    39 1
    42    21    40 1
    43    21    41 1
    44    42     1 1
    45    43    26 1
@<TRIPOS>SUBSTRUCTURE
     1 QGG         1 TEMP              0 ****  ****    0 ROOT
