@<TRIPOS>MOLECULE
molecule
   22    22     1     0     0
SMALL
bcc


@<TRIPOS>ATOM
      1 Cl1          0.0000     0.0000     0.0000 cl         1 QH3      -0.045400
      2 C02          1.7360     0.0000     0.0000 ca         1 QH3       0.055400
      3 C03          2.4270     0.0000     1.1970 ca         1 QH3      -0.108000
      4 C04          3.8100     0.0010     1.1980 ca         1 QH3      -0.095000
      5 C05          4.5020     0.0010     0.0000 ca         1 QH3      -0.120300
      6 C06          6.0090     0.0020     0.0010 c3         1 QH3       0.074000
      7 S07          6.6130    -1.7040     0.0020 ss         1 QH3      -0.109300
      8 C08          8.3500    -1.4130     0.0030 c2         1 QH3       0.463100
      9 N09          8.8080    -0.1910     0.0030 n2         1 QH3      -0.717100
     10 N10          9.2260    -2.4750     0.0030 nz         1 QH3      -0.786600
     11 C11          3.8120     0.0010    -1.1980 ca         1 QH3      -0.090000
     12 C12          2.4280    -0.0060    -1.1990 ca         1 QH3       0.027400
     13 Cl2          1.5620    -0.0130    -2.7030 cl         1 QH3      -0.051400
     14 H03          1.8860    -0.0000     2.1350 ha         1 QH3       0.167000
     15 H04          4.3510     0.0010     2.1360 ha         1 QH3       0.145000
     16 H061         6.3700     0.5130    -0.8840 h1         1 QH3       0.099700
     17 H062         6.3690     0.5130     0.8850 h1         1 QH3       0.099700
     18 H11          4.3550    -0.0020    -2.1360 ha         1 QH3       0.154000
     19 H09          9.7950    -0.0250     0.0030 hn         1 QH3       0.435400
     20 H101         9.8020    -2.4330     0.8200 hn         1 QH3       0.467133
     21 H102         8.7100    -3.3330     0.0020 hn         1 QH3       0.467133
     22 H103         9.8030    -2.4320    -0.8140 hn         1 QH3       0.467133
@<TRIPOS>BOND
     1     1     2 1
     2     2     3 ar
     3     2    12 ar
     4     3     4 ar
     5     4     5 ar
     6     5     6 1
     7     5    11 ar
     8     6     7 1
     9     7     8 1
    10     8     9 2
    11     8    10 1
    12    11    12 ar
    13    12    13 1
    14     3    14 1
    15     4    15 1
    16     6    16 1
    17     6    17 1
    18    11    18 1
    19     9    19 1
    20    10    20 1
    21    10    21 1
    22    22    10 1
@<TRIPOS>SUBSTRUCTURE
     1 QH3         1 TEMP              0 ****  ****    0 ROOT
