@<TRIPOS>MOLECULE
QH3
   22    22     1     0     0
SMALL
bcc


@<TRIPOS>ATOM
      1 Cl1          0.0000     0.0000     0.0000 cl         1 QH3       0.051600
      2 C02          1.7360     0.0000     0.0000 ca         1 QH3      -0.020600
      3 C03          2.4270     0.0000     1.1970 ca         1 QH3      -0.078000
      4 C04          3.8100     0.0010     1.1980 ca         1 QH3      -0.061000
      5 C05          4.5020     0.0010     0.0000 ca         1 QH3      -0.131300
      6 C06          6.0090     0.0020     0.0010 c3         1 QH3       0.170000
      7 S07          6.6130    -1.7040     0.0020 ss         1 QH3      -0.238300
      8 C08          8.3500    -1.4130     0.0030 c2         1 QH3       0.151100
      9 N09          8.8080    -0.1910     0.0030 n2         1 QH3      -0.507100
     10 N10          9.2260    -2.4750     0.0030 nz         1 QH3       0.214400
     11 C11          3.8120     0.0010    -1.1980 ca         1 QH3      -0.060000
     12 C12          2.4280    -0.0060    -1.1990 ca         1 QH3      -0.049600
     13 Cl2          1.5620    -0.0130    -2.7030 cl         1 QH3       0.043600
     14 H03          1.8860    -0.0000     2.1350 ha         1 QH3       0.131000
     15 H04          4.3510     0.0010     2.1360 ha         1 QH3       0.113000
     16 H061         6.3700     0.5130    -0.8840 h1         1 QH3       0.052200
     17 H062         6.3690     0.5130     0.8850 h1         1 QH3       0.052200
     18 H11          4.3550    -0.0020    -2.1360 ha         1 QH3       0.121000
     19 H09          8.1720     0.5820     0.0030 hn         1 QH3       0.382400
     20 H101         8.7100    -3.3330     0.0120 hn         1 QH3       0.222133
     21 H102         9.8080    -2.4270     0.8150 hn         1 QH3       0.222133
     22 H103         9.7960    -2.4370    -0.8190 hn         1 QH3       0.222133
@<TRIPOS>BOND
     1     1     2 1   
     2     2     3 ar  
     3     2    12 ar  
     4     3     4 ar  
     5     3    14 1   
     6     4     5 ar  
     7     4    15 1   
     8     5     6 1   
     9     5    11 ar  
    10     6     7 1   
    11     6    16 1   
    12     6    17 1   
    13     7     8 1   
    14     8     9 2   
    15     8    10 1   
    16     9    19 1   
    17    10    20 1   
    18    10    21 1   
    19    10    22 1   
    20    11    12 ar  
    21    11    18 1   
    22    12    13 1   
@<TRIPOS>SUBSTRUCTURE
     1 QH3         1 TEMP              0 ****  ****    0 ROOT
