@<TRIPOS>MOLECULE
QHC
   41    43     1     0     0
SMALL
bcc


@<TRIPOS>ATOM
      1 C1           0.0000     0.0000     0.0000 ca         1 QHC       0.113900
      2 C2           1.3870     0.0000     0.0000 ca         1 QHC      -0.077600
      3 C3           2.0840     0.0000     1.1950 ca         1 QHC      -0.071000
      4 C4           1.4000     0.0010     2.3950 ca         1 QHC      -0.095000
      5 C5           0.0070     0.0020     2.4020 cp         1 QHC       0.005000
      6 C6          -0.6920     0.0010     1.1960 ca         1 QHC      -0.131000
      7 C8          -0.7310     0.0030     3.6890 cp         1 QHC      -0.175300
      8 C9          -0.4140    -0.9150     4.6850 ca         1 QHC       0.419200
      9 C11         -2.0360    -0.0540     6.0710 ca         1 QHC       0.406200
     10 C12         -1.7530     0.9340     3.9210 ca         1 QHC      -0.025300
     11 C13         -2.4060     0.9000     5.1320 ca         1 QHC      -0.223600
     12 C14         -3.5080     1.8630     5.4830 c3         1 QHC       0.089000
     13 C15         -4.0660     2.5210     4.2220 c3         1 QHC      -0.040400
     14 C16         -2.8950     3.0860     3.4100 c3         1 QHC      -0.017400
     15 C17         -2.0940     1.9180     2.8380 c3         1 QHC       0.012900
     16 C19         -5.6190     0.1920     8.2050 c3         1 QHC      -0.097400
     17 C21         -5.2950     0.0940     9.6970 c3         1 QHC       0.020900
     18 Cl7          2.2530    -0.0030    -1.5050 cl         1 QHC       0.006600
     19 N10         -1.0700    -0.9140     5.8280 nb         1 QHC      -0.582000
     20 O20         -3.5610     1.3450     8.1280 o          1 QHC      -0.644100
     21 F22         -0.6740     0.0050    -1.1710 f          1 QHC      -0.121900
     22 N23         -4.5830     1.1410     6.1690 ns         1 QHC      -0.198900
     23 H1           3.1670    -0.0010     1.1900 ha         1 QHC       0.120000
     24 H2           1.9470     0.0010     3.3300 ha         1 QHC       0.119000
     25 H3          -1.7750     0.0020     1.1960 ha         1 QHC       0.133000
     26 H4           0.3760    -1.6380     4.5190 h4         1 QHC      -0.015900
     27 H5          -2.5490    -0.0880     7.0240 h4         1 QHC       0.014100
     28 H6          -3.1130     2.6300     6.1380 h1         1 QHC       0.066700
     29 H7          -4.5950     1.7830     3.6310 hc         1 QHC       0.021700
     30 H8          -4.7380     3.3250     4.4980 hc         1 QHC       0.021700
     31 H9          -2.2560     3.6630     4.0670 hc         1 QHC       0.024200
     32 H10         -3.2870     3.6790     2.5920 hc         1 QHC       0.024200
     33 H11         -1.1780     2.2950     2.3980 hc         1 QHC       0.033200
     34 H12         -2.6830     1.4200     2.0770 hc         1 QHC       0.033200
     35 H13         -6.5480     0.7320     8.0710 hc         1 QHC       0.025700
     36 H14         -5.7170    -0.8040     7.7910 hc         1 QHC       0.025700
     37 H15         -5.1410     1.0890    10.0990 hc         1 QHC       0.010367
     38 H16         -6.1200    -0.3800    10.2150 hc         1 QHC       0.010367
     39 H17         -4.3960    -0.4940     9.8340 hc         1 QHC       0.010367
     40 H18         -5.3840     0.8310     5.6560 hn         1 QHC       0.177500
     41 C18         -4.5130     0.9350     7.4990 c          1 QHC       0.572100
@<TRIPOS>BOND
     1     1     2 ar  
     2     1     6 ar  
     3     1    21 1   
     4     2     3 ar  
     5     2    18 1   
     6     3     4 ar  
     7     3    23 1   
     8     4     5 ar  
     9     4    24 1   
    10     5     6 ar  
    11     5     7 1   
    12     6    25 1   
    13     7     8 ar  
    14     7    10 ar  
    15     8    19 ar  
    16     8    26 1   
    17     9    11 ar  
    18     9    19 ar  
    19     9    27 1   
    20    10    11 ar  
    21    10    15 1   
    22    11    12 1   
    23    12    13 1   
    24    12    22 1   
    25    12    28 1   
    26    13    14 1   
    27    13    29 1   
    28    13    30 1   
    29    14    15 1   
    30    14    31 1   
    31    14    32 1   
    32    15    33 1   
    33    15    34 1   
    34    16    17 1   
    35    16    35 1   
    36    16    36 1   
    37    16    41 1   
    38    17    37 1   
    39    17    38 1   
    40    17    39 1   
    41    20    41 2   
    42    22    40 1   
    43    22    41 1   
@<TRIPOS>SUBSTRUCTURE
     1 QHC         1 TEMP              0 ****  ****    0 ROOT
