@<TRIPOS>MOLECULE
molecule
   41    43     1     0     0
SMALL
bcc


@<TRIPOS>ATOM
      1 C1           0.0000     0.0000     0.0000 ca         1 QHC       0.140900
      2 C2           1.3870     0.0000     0.0000 ca         1 QHC      -0.015600
      3 C3           2.0840     0.0000     1.1950 ca         1 QHC      -0.096000
      4 C4           1.4000     0.0010     2.3950 ca         1 QHC      -0.126000
      5 C5           0.0070     0.0020     2.4020 cp         1 QHC      -0.004000
      6 C6          -0.6920     0.0010     1.1960 ca         1 QHC      -0.156000
      7 C8          -0.7310     0.0030     3.6890 cp         1 QHC      -0.184300
      8 C9          -0.4140    -0.9150     4.6850 ca         1 QHC       0.437200
      9 C11         -2.0360    -0.0540     6.0710 ca         1 QHC       0.444200
     10 C12         -1.7530     0.9340     3.9210 ca         1 QHC      -0.021300
     11 C13         -2.4060     0.9000     5.1320 ca         1 QHC      -0.222600
     12 C14         -3.5080     1.8630     5.4830 c3         1 QHC       0.169000
     13 C15         -4.0660     2.5210     4.2220 c3         1 QHC      -0.095400
     14 C16         -2.8950     3.0860     3.4100 c3         1 QHC      -0.076400
     15 C17         -2.0940     1.9180     2.8380 c3         1 QHC      -0.045100
     16 C19         -5.6190     0.1920     8.2050 c3         1 QHC      -0.160400
     17 C21         -5.2950     0.0940     9.6970 c3         1 QHC      -0.077100
     18 Cl7          2.2530    -0.0030    -1.5050 cl         1 QHC      -0.085400
     19 N10         -1.0700    -0.9140     5.8280 nb         1 QHC      -0.691000
     20 O20         -3.5610     1.3450     8.1280 o          1 QHC      -0.609100
     21 F22         -0.6740     0.0050    -1.1710 f          1 QHC      -0.126900
     22 N23         -4.5830     1.1410     6.1690 ns         1 QHC      -0.584900
     23 H1           3.1670    -0.0010     1.1900 ha         1 QHC       0.153000
     24 H2           1.9470     0.0010     3.3300 ha         1 QHC       0.148000
     25 H3          -1.7750     0.0020     1.1960 ha         1 QHC       0.156000
     26 H4           0.3760    -1.6380     4.5190 h4         1 QHC       0.027100
     27 H5          -2.5490    -0.0880     7.0240 h4         1 QHC       0.049100
     28 H6          -3.1130     2.6300     6.1380 h1         1 QHC       0.092700
     29 H7          -4.5950     1.7830     3.6310 hc         1 QHC       0.050700
     30 H8          -4.7380     3.3250     4.4980 hc         1 QHC       0.050700
     31 H9          -2.2560     3.6630     4.0670 hc         1 QHC       0.054700
     32 H10         -3.2870     3.6790     2.5920 hc         1 QHC       0.054700
     33 H11         -1.1780     2.2950     2.3980 hc         1 QHC       0.061700
     34 H12         -2.6830     1.4200     2.0770 hc         1 QHC       0.061700
     35 H13         -6.5480     0.7320     8.0710 hc         1 QHC       0.059700
     36 H14         -5.7170    -0.8040     7.7910 hc         1 QHC       0.059700
     37 H15         -5.1410     1.0890    10.0990 hc         1 QHC       0.045700
     38 H16         -6.1200    -0.3800    10.2150 hc         1 QHC       0.045700
     39 H17         -4.3960    -0.4940     9.8340 hc         1 QHC       0.045700
     40 H18         -5.3840     0.8310     5.6560 hn         1 QHC       0.317500
     41 C18         -4.5130     0.9350     7.4990 c          1 QHC       0.654100
@<TRIPOS>BOND
     1    21     1 1
     2     1     6 ar
     3     1     2 ar
     4    14    15 1
     5    14    13 1
     6     6     5 ar
     7    15    10 1
     8    18     2 1
     9    13    12 1
    10     2     3 ar
    11    12    11 1
    12    12    22 1
    13    10    11 ar
    14    10     7 ar
    15     5     7 1
    16     5     4 ar
    17    11     9 ar
    18    22    41 1
    19     7     8 ar
    20     3     4 ar
    21     9    19 ar
    22     8    19 ar
    23    41    16 1
    24    41    20 2
    25    16    17 1
    26     3    23 1
    27     4    24 1
    28     6    25 1
    29     8    26 1
    30     9    27 1
    31    12    28 1
    32    13    29 1
    33    13    30 1
    34    14    31 1
    35    14    32 1
    36    15    33 1
    37    15    34 1
    38    16    35 1
    39    16    36 1
    40    17    37 1
    41    17    38 1
    42    17    39 1
    43    22    40 1
@<TRIPOS>SUBSTRUCTURE
     1 QHC         1 TEMP              0 ****  ****    0 ROOT
