@<TRIPOS>MOLECULE
QHF
   70    72     1     0     0
SMALL
bcc


@<TRIPOS>ATOM
      1 C1          0.6210    0.4710    0.0700 c3        1 QHF     -0.090100
      2 F1          1.3710   -5.7410   -1.0540 f         1 QHF     -0.090900
      3 N1          6.5910    1.1240    4.3960 n3        1 QHF     -0.822500
      4 O1          6.5780    2.4050    2.2550 o         1 QHF     -0.655800
      5 S1          6.3950    1.1390    2.8230 s6        1 QHF      1.459900
      6 C2          1.9380   -0.2830    0.0340 c3        1 QHF     -0.101000
      7 N2          2.6750    0.4000   12.1650 nc        1 QHF     -0.348300
      8 O2          7.0320    0.0420    2.1770 o         1 QHF     -0.655800
      9 C3          2.7060   -0.0480    1.3330 c3        1 QHF     -0.102400
     10 N3          4.9850   -0.4990    0.3550 n4        1 QHF     -0.394700
     11 O3          2.0530    1.5220   11.8710 os        1 QHF     -0.111100
     12 C4          4.1440    0.5050    1.1850 c3        1 QHF      0.220200
     13 N4          0.4930   -2.2750   -0.3720 nb        1 QHF     -0.714500
     14 O4          6.0130    0.1250   -0.2640 oh        1 QHF     -0.385300
     15 C5          4.1060    1.8550    0.4570 c3        1 QHF     -0.127100
     16 N5          2.9050   -2.5310   -0.3080 nb        1 QHF     -0.714500
     17 O5          6.4390   -2.2840    0.8200 o         1 QHF     -0.372100
     18 C6          4.6910    0.7100    2.6020 c3        1 QHF     -0.333600
     19 C7          6.8490   -0.0820    5.1560 c3        1 QHF      0.212300
     20 C8          5.8460   -0.3130    6.2850 c3        1 QHF     -0.094400
     21 C9          5.7370    0.9120    7.1820 c3        1 QHF     -0.065700
     22 C10         4.6720    0.6850    8.2440 c3        1 QHF     -0.077400
     23 C11         4.8050    1.6560    9.4050 c3        1 QHF      0.001900
     24 C12         3.7960    1.4060   10.4400 cd        1 QHF     -0.331900
     25 C13         3.7410    0.2540   11.3510 cd        1 QHF      0.323600
     26 C14         4.6960   -0.8700   11.3640 c3        1 QHF     -0.131400
     27 C15         2.7120    2.1840   10.8080 cc        1 QHF      0.274000
     28 C16         2.1400    3.4580   10.3790 c3        1 QHF     -0.140400
     29 C17         5.4330    2.1480    6.3470 c3        1 QHF     -0.094400
     30 C18         6.4460    2.3130    5.2150 c3        1 QHF      0.212300
     31 C19         5.3990   -1.7430    1.1280 c         1 QHF      0.569900
     32 C20         1.7590   -1.7800   -0.2200 ca        1 QHF      0.618300
     33 C21         0.3660   -3.5830   -0.6440 ca        1 QHF      0.415700
     34 C22         1.4980   -4.4350   -0.7730 ca        1 QHF     -0.075700
     35 C23         2.7730   -3.8370   -0.5880 ca        1 QHF      0.415700
     36 H1         -0.0250    0.1190    0.9090 hc        1 QHF      0.061367
     37 H1A         0.8250    1.5620    0.2060 hc        1 QHF      0.061367
     38 H1B         0.0620    0.3360   -0.8880 hc        1 QHF      0.061367
     39 H2          2.5160    0.1210   -0.8500 hc        1 QHF      0.068700
     40 H3          2.1550    0.7210    1.9450 hc        1 QHF      0.079200
     41 H3A         2.7220   -0.9830    1.9520 hc        1 QHF      0.079200
     42 HO4         6.8720   -0.1520    0.1510 ho        1 QHF      0.500000
     43 H5          3.8050    1.7370   -0.6120 hc        1 QHF      0.085700
     44 H5A         5.1080    2.3550    0.4840 hc        1 QHF      0.085700
     45 H5B         3.3610    2.5130    0.9660 hc        1 QHF      0.085700
     46 H6          4.4590   -0.2000    3.2160 h1        1 QHF      0.119200
     47 H6A         4.0610    1.5340    3.0430 h1        1 QHF      0.119200
     48 H7          7.8840   -0.0020    5.6010 h1        1 QHF      0.071450
     49 H7A         6.8430   -0.9650    4.4540 h1        1 QHF      0.071450
     50 H8          6.1940   -1.1940    6.8850 hc        1 QHF      0.057450
     51 H8A         4.8370   -0.5640    5.8660 hc        1 QHF      0.057450
     52 H9          6.7310    1.0650    7.6910 hc        1 QHF      0.064700
     53 H10         4.7640   -0.3620    8.6410 hc        1 QHF      0.050700
     54 H10A        3.6540    0.7790    7.7860 hc        1 QHF      0.050700
     55 H11         4.7060    2.7110    9.0280 hc        1 QHF      0.051700
     56 H11A        5.8310    1.5570    9.8570 hc        1 QHF      0.051700
     57 H14         4.3480   -1.6710   10.6640 hc        1 QHF      0.057367
     58 H14A        5.7010   -0.5120   11.0290 hc        1 QHF      0.057367
     59 H14B        4.7930   -1.3140   12.3860 hc        1 QHF      0.057367
     60 H16         1.9300    4.1080   11.2670 hc        1 QHF      0.066700
     61 H16A        2.8520    3.9870    9.6980 hc        1 QHF      0.066700
     62 H16B        1.1750    3.2860    9.8380 hc        1 QHF      0.066700
     63 H17         4.3940    2.0800    5.9320 hc        1 QHF      0.057450
     64 H17A        5.4820    3.0650    6.9910 hc        1 QHF      0.057450
     65 H18         7.4550    2.5540    5.6610 h1        1 QHF      0.071450
     66 H18A        6.1420    3.1780    4.5570 h1        1 QHF      0.071450
     67 H19         4.6460   -2.0260    1.8900 hx        1 QHF      0.121200
     68 H21        -0.6630   -3.9730   -0.7680 h4        1 QHF      0.061600
     69 H23         3.6980   -4.4380   -0.6750 h4        1 QHF      0.061600
     70 H31         4.3640   -0.8190   -0.4270 hn        1 QHF      0.500800
@<TRIPOS>BOND
     1    1    6 1   
     2    1   36 1   
     3    1   37 1   
     4    1   38 1   
     5    2   34 1   
     6    3    5 1   
     7    3   19 1   
     8    3   30 1   
     9    4    5 2   
    10    5    8 2   
    11    5   18 1   
    12    6    9 1   
    13    6   32 1   
    14    6   39 1   
    15    7   11 1   
    16    7   25 2   
    17    9   12 1   
    18    9   40 1   
    19    9   41 1   
    20   10   12 1   
    21   10   14 1   
    22   10   31 1   
    23   10   70 1   
    24   11   27 1   
    25   12   15 1   
    26   12   18 1   
    27   13   32 ar  
    28   13   33 ar  
    29   14   42 1   
    30   15   43 1   
    31   15   44 1   
    32   15   45 1   
    33   16   32 ar  
    34   16   35 ar  
    35   17   31 2   
    36   18   46 1   
    37   18   47 1   
    38   19   20 1   
    39   19   48 1   
    40   19   49 1   
    41   20   21 1   
    42   20   50 1   
    43   20   51 1   
    44   21   22 1   
    45   21   29 1   
    46   21   52 1   
    47   22   23 1   
    48   22   53 1   
    49   22   54 1   
    50   23   24 1   
    51   23   55 1   
    52   23   56 1   
    53   24   25 1   
    54   24   27 2   
    55   25   26 1   
    56   26   57 1   
    57   26   58 1   
    58   26   59 1   
    59   27   28 1   
    60   28   60 1   
    61   28   61 1   
    62   28   62 1   
    63   29   30 1   
    64   29   63 1   
    65   29   64 1   
    66   30   65 1   
    67   30   66 1   
    68   31   67 1   
    69   33   34 ar  
    70   33   68 1   
    71   34   35 ar  
    72   35   69 1   
@<TRIPOS>SUBSTRUCTURE
     1 QHF         1 TEMP              0 ****  ****    0 ROOT
