@<TRIPOS>MOLECULE
molecule
   50    52     1     0     0
SMALL
bcc


@<TRIPOS>ATOM
      1 C1           0.0000     0.0000     0.0000 c3         1 QHG      -0.086100
      2 C2           1.5290     0.0000     0.0000 c3         1 QHG      -0.072700
      3 C3           2.0400     0.0000     1.4420 c3         1 QHG      -0.086100
      4 C4           2.0390    -1.2500    -0.7210 c3         1 QHG       0.161800
      5 N5           3.5040    -1.1930    -0.8250 n3         1 QHG      -0.717600
      6 C6           3.9210    -0.2430    -1.8690 c3         1 QHG       0.155800
      7 C7           5.4100     0.0530    -1.6880 c3         1 QHG      -0.032100
      8 C8           6.1810    -1.2380    -1.5760 ca         1 QHG      -0.058300
      9 C9           7.5540    -1.2050    -1.7620 ca         1 QHG      -0.161000
     10 C10          8.3010    -2.3680    -1.6640 ca         1 QHG       0.096100
     11 C11          7.6690    -3.5680    -1.3780 ca         1 QHG      -0.157000
     12 C12          6.3030    -3.5980    -1.1950 ca         1 QHG      -0.098000
     13 C13          5.5550    -2.4330    -1.2940 ca         1 QHG      -0.068300
     14 C14          4.0640    -2.5200    -1.0940 c3         1 QHG       0.273100
     15 C15          3.7700    -3.4300     0.0720 ca         1 QHG      -0.129300
     16 C16          3.4080    -4.7470    -0.1560 ca         1 QHG      -0.115500
     17 C17          3.1380    -5.5850     0.9050 ca         1 QHG      -0.146000
     18 C18          3.2320    -5.1020     2.2130 ca         1 QHG      -0.004800
     19 C19          3.5980    -3.7710     2.4360 ca         1 QHG      -0.146000
     20 C20          3.8710    -2.9460     1.3640 ca         1 QHG      -0.115500
     21 C21          2.9440    -5.9890     3.3520 ce         1 QHG      -0.186200
     22 C22          3.0350    -5.5200     4.6130 cf         1 QHG      -0.134200
     23 C23          2.7490    -6.4020     5.7450 c          1 QHG       0.864800
     24 O24          2.4300    -7.5600     5.5470 o          1 QHG      -0.837800
     25 O25          2.8400    -5.9330     7.0060 o          1 QHG      -0.837800
     26 O26          9.6470    -2.3310    -1.8490 oh         1 QHG      -0.525100
     27 H11C        -0.3610    -0.0320    -1.0210 hc         1 QHG       0.035700
     28 H12C        -0.3610     0.9000     0.4820 hc         1 QHG       0.035700
     29 H13C        -0.3610    -0.8680     0.5380 hc         1 QHG       0.035700
     30 H2           1.8900     0.8840    -0.5110 hc         1 QHG       0.039700
     31 H31C         1.7380    -0.9180     1.9320 hc         1 QHG       0.035700
     32 H32C         3.1200     0.0710     1.4420 hc         1 QHG       0.035700
     33 H33C         1.6220     0.8470     1.9730 hc         1 QHG       0.035700
     34 H41C         1.6080    -1.2960    -1.7140 h1         1 QHG       0.042200
     35 H42C         1.7510    -2.1320    -0.1620 h1         1 QHG       0.042200
     36 H61C         3.7680    -0.6970    -2.8400 h1         1 QHG       0.035700
     37 H62C         3.3630     0.6780    -1.7510 h1         1 QHG       0.035700
     38 H14          3.6080    -2.9230    -1.9910 h1         1 QHG       0.030700
     39 H71C         5.7650     0.5950    -2.5560 hc         1 QHG       0.054700
     40 H72C         5.5430     0.6170    -0.7720 hc         1 QHG       0.054700
     41 H9           8.0450    -0.2650    -1.9860 ha         1 QHG       0.132000
     42 H11          8.2470    -4.4810    -1.3010 ha         1 QHG       0.137000
     43 H26          9.8450    -2.4870    -2.7570 ho         1 QHG       0.410000
     44 H12          5.8100    -4.5370    -0.9720 ha         1 QHG       0.151000
     45 H16          3.3360    -5.1190    -1.1710 ha         1 QHG       0.125500
     46 H20          4.1550    -1.9150     1.5350 ha         1 QHG       0.125500
     47 H17          2.8550    -6.6150     0.7250 ha         1 QHG       0.138000
     48 H19          3.6750    -3.3910     3.4480 ha         1 QHG       0.138000
     49 H21          2.6600    -7.0190     3.1760 ha         1 QHG       0.151000
     50 H22          3.3200    -4.4890     4.7880 ha         1 QHG       0.105000
@<TRIPOS>BOND
     1     1     2 1
     2     2     3 1
     3     2     4 1
     4     4     5 1
     5     5     6 1
     6     5    14 1
     7     6     7 1
     8     7     8 1
     9     8     9 ar
    10     8    13 ar
    11     9    10 ar
    12    10    11 ar
    13    10    26 1
    14    11    12 ar
    15    12    13 ar
    16    13    14 1
    17    14    15 1
    18    15    16 ar
    19    15    20 ar
    20    16    17 ar
    21    17    18 ar
    22    18    19 ar
    23    18    21 1
    24    19    20 ar
    25    21    22 2
    26    22    23 1
    27    23    24 1
    28    23    25 1
    29     1    27 1
    30     1    28 1
    31     1    29 1
    32     2    30 1
    33     3    31 1
    34     3    32 1
    35     3    33 1
    36     4    34 1
    37     4    35 1
    38     6    36 1
    39     6    37 1
    40    14    38 1
    41     7    39 1
    42     7    40 1
    43     9    41 1
    44    11    42 1
    45    26    43 1
    46    12    44 1
    47    16    45 1
    48    20    46 1
    49    17    47 1
    50    19    48 1
    51    21    49 1
    52    22    50 1
@<TRIPOS>SUBSTRUCTURE
     1 QHG         1 TEMP              0 ****  ****    0 ROOT
