@<TRIPOS>MOLECULE
QHG
   50    54     1     0     0
SMALL
bcc


@<TRIPOS>ATOM
      1 C1           0.0000     0.0000     0.0000 c3         1 QHG      -0.116000
      2 C2           1.5290     0.0000     0.0000 c3         1 QHG      -0.094000
      3 C3           2.0400     0.0000     1.4420 c3         1 QHG      -0.116000
      4 C4           2.0390    -1.2500    -0.7210 c3         1 QHG      -0.098000
      5 N5           3.5040    -1.1930    -0.8250 n3         1 QHG      -0.053000
      6 C6           3.9210    -0.2430    -1.8690 c3         1 QHG      -0.099000
      7 C7           5.4100     0.0530    -1.6880 c3         1 QHG      -0.052000
      8 C8           6.1810    -1.2380    -1.5760 ca         1 QHG      -0.052000
      9 C9           7.5540    -1.2050    -1.7620 ca         1 QHG      -0.150000
     10 C10          8.3010    -2.3680    -1.6640 ca         1 QHG       0.066000
     11 C11          7.6690    -3.5680    -1.3780 ca         1 QHG      -0.146000
     12 C12          6.3030    -3.5980    -1.1950 ca         1 QHG      -0.071000
     13 C13          5.5550    -2.4330    -1.2940 ca         1 QHG      -0.072000
     14 C14          4.0640    -2.5200    -1.0940 c3         1 QHG       0.057000
     15 C15          3.7700    -3.4300     0.0720 c2         1 QHG      -0.203000
     16 C16          3.4080    -4.7470    -0.1560 c2         1 QHG      -0.051000
     17 C17          3.1380    -5.5850     0.9050 c2         1 QHG      -0.212500
     18 C18          3.2320    -5.1020     2.2130 c3         1 QHG       0.095000
     19 C19          3.5980    -3.7710     2.4360 c2         1 QHG      -0.212500
     20 C20          3.8710    -2.9460     1.3640 c2         1 QHG      -0.051000
     21 C21          2.9440    -5.9890     3.3520 c2         1 QHG      -0.081000
     22 C22          3.0350    -5.5200     4.6130 c2         1 QHG      -0.169000
     23 C23          2.7490    -6.4020     5.7450 c3         1 QHG       0.500000
     24 O24          2.4300    -7.5600     5.5470 o          1 QHG      -0.587000
     25 O25          2.8400    -5.9330     7.0060 o          1 QHG      -0.587000
     26 O26          9.6470    -2.3310    -1.8490 oh         1 QHG      -0.262000
     27 H11C        -0.3610     0.9000     0.4820 hc         1 QHG       0.044833
     28 H12C        -0.3610    -0.0320    -1.0210 hc         1 QHG       0.044833
     29 H13C        -0.3610    -0.8680     0.5380 hc         1 QHG       0.044833
     30 H2           1.8900     0.8840    -0.5110 hc         1 QHG       0.058000
     31 H31C         1.7390    -0.9190     1.9310 hc         1 QHG       0.044833
     32 H32C         1.6200     0.8460     1.9730 hc         1 QHG       0.044833
     33 H33C         3.1200     0.0730     1.4430 hc         1 QHG       0.044833
     34 H41C         1.6080    -1.2960    -1.7140 h1         1 QHG       0.062000
     35 H42C         1.7510    -2.1320    -0.1620 h1         1 QHG       0.062000
     36 H61C         3.3630     0.6780    -1.7510 h1         1 QHG       0.051500
     37 H62C         3.7680    -0.6970    -2.8400 h1         1 QHG       0.051500
     38 H14          3.6080    -2.9230    -1.9910 h1         1 QHG       0.050000
     39 H71C         5.5430     0.6170    -0.7720 hc         1 QHG       0.062000
     40 H72C         5.7650     0.5950    -2.5560 hc         1 QHG       0.062000
     41 H9           8.0450    -0.2650    -1.9860 ha         1 QHG       0.109000
     42 H11          8.2470    -4.4810    -1.3010 ha         1 QHG       0.110000
     43 H26         10.0750    -2.1990    -1.0190 ho         1 QHG       0.197000
     44 H12          5.8100    -4.5370    -0.9720 ha         1 QHG       0.125000
     45 H16          3.3360    -5.1190    -1.1710 ha         1 QHG       0.100000
     46 H20          4.1550    -1.9150     1.5350 ha         1 QHG       0.100000
     47 H17          2.8550    -6.6150     0.7250 ha         1 QHG       0.122500
     48 H19          3.6750    -3.3910     3.4480 ha         1 QHG       0.122500
     49 H21          3.9410    -5.7180     3.0230 DU         1 QHG       0.025000
     50 H22          3.7220    -6.2650     4.9970 DU         1 QHG       0.078000
@<TRIPOS>BOND
     1     1     2 1   
     2     1    27 1   
     3     1    28 1   
     4     1    29 1   
     5     2     3 1   
     6     2     4 1   
     7     2    30 1   
     8     3    31 1   
     9     3    32 1   
    10     3    33 1   
    11     4     5 1   
    12     4    34 1   
    13     4    35 1   
    14     5     6 1   
    15     5    14 1   
    16     6     7 1   
    17     6    36 1   
    18     6    37 1   
    19     7     8 1   
    20     7    39 1   
    21     7    40 1   
    22     8     9 1   
    23     8    13 1   
    24     9    10 1   
    25     9    41 1   
    26    10    11 1   
    27    10    26 1   
    28    11    12 1   
    29    11    42 1   
    30    12    13 1   
    31    12    44 1   
    32    13    14 1   
    33    14    15 1   
    34    14    38 1   
    35    15    16 1   
    36    15    20 1   
    37    16    17 1   
    38    16    45 1   
    39    17    18 1   
    40    17    47 1   
    41    18    19 1   
    42    18    21 1   
    43    18    49 1   
    44    19    20 1   
    45    19    48 1   
    46    20    46 1   
    47    21    22 1   
    48    21    49 1   
    49    22    23 1   
    50    22    50 1   
    51    23    24 1   
    52    23    25 1   
    53    23    50 1   
    54    26    43 1   
@<TRIPOS>SUBSTRUCTURE
     1 QHG         1 TEMP              0 ****  ****    0 ROOT
