@<TRIPOS>MOLECULE
molecule
   44    45     1     0     0
SMALL
bcc


@<TRIPOS>ATOM
      1 O1           0.0000     0.0000     0.0000 oh         1 QI1      -0.361100
      2 N1           1.4160     0.0000     0.0000 ns         1 QI1      -0.475400
      3 C1           2.0910     0.0000     1.1660 c          1 QI1       0.669100
      4 O2           1.4850    -0.0000     2.2170 o          1 QI1      -0.572100
      5 C2           3.5970    -0.0000     1.1660 c3         1 QI1      -0.149400
      6 C3           4.1080     0.0000     2.6080 c3         1 QI1      -0.067400
      7 C4           5.6380    -0.0000     2.6080 c3         1 QI1       0.155800
      8 N2           6.1280    -0.0010     3.9920 n3         1 QI1      -0.717600
      9 C5           7.5770    -0.2390     4.0380 c3         1 QI1       0.202100
     10 C6           7.8550    -1.6970     3.7800 ca         1 QI1      -0.079300
     11 C7           7.8010    -2.6050     4.8200 ca         1 QI1      -0.108250
     12 C8           8.0550    -3.9430     4.5840 ca         1 QI1      -0.123250
     13 C9           5.7800     1.2530     4.6750 c3         1 QI1       0.202100
     14 C10          8.1580    -2.1270     2.5010 ca         1 QI1      -0.108250
     15 C11          8.4120    -3.4650     2.2650 ca         1 QI1      -0.123250
     16 C12          8.3640    -4.3730     3.3060 ca         1 QI1       0.029900
     17 Cl1          8.6840    -6.0540     3.0090 cl         1 QI1      -0.111400
     18 C13          5.9300     1.0730     6.1630 ca         1 QI1      -0.079300
     19 C14          7.0980     1.4620     6.7910 ca         1 QI1      -0.108250
     20 C15          7.2370     1.2970     8.1560 ca         1 QI1      -0.123250
     21 C16          4.8980     0.5260     6.9010 ca         1 QI1      -0.108250
     22 C17          5.0350     0.3610     8.2660 ca         1 QI1      -0.123250
     23 C18          6.2060     0.7440     8.8950 ca         1 QI1       0.029900
     24 Cl2          6.3800     0.5380    10.6100 cl         1 QI1      -0.111400
     25 H1           3.9580    -0.8850     0.6550 hc         1 QI1       0.059200
     26 H2           3.9580     0.8840     0.6540 hc         1 QI1       0.059200
     27 H3           3.7470    -0.8840     3.1190 hc         1 QI1       0.069200
     28 H4           3.7480     0.8850     3.1190 hc         1 QI1       0.069200
     29 H5           5.9980    -0.8850     2.0970 h1         1 QI1       0.035200
     30 H6           5.9990     0.8840     2.0970 h1         1 QI1       0.035200
     31 H7           8.0660     0.3620     3.2800 h1         1 QI1       0.045700
     32 H8           7.9570     0.0340     5.0150 h1         1 QI1       0.045700
     33 H9           7.5590    -2.2680     5.8210 ha         1 QI1       0.139500
     34 H10          8.0150    -4.6540     5.4010 ha         1 QI1       0.144250
     35 H11          4.7550     1.5170     4.4440 h1         1 QI1       0.045700
     36 H12          6.4400     2.0430     4.3380 h1         1 QI1       0.045700
     37 H13          8.1960    -1.4160     1.6850 ha         1 QI1       0.139500
     38 H14          8.6520    -3.8020     1.2630 ha         1 QI1       0.144250
     39 H15          7.9050     1.8950     6.2130 ha         1 QI1       0.139500
     40 H16          8.1540     1.6000     8.6480 ha         1 QI1       0.144250
     41 H17          3.9800     0.2250     6.4090 ha         1 QI1       0.139500
     42 H18          4.2260    -0.0700     8.8440 ha         1 QI1       0.144250
     43 H19         -0.3140     0.0000    -0.8890 ho         1 QI1       0.398000
     44 H20          1.9160     0.0000    -0.8670 hn         1 QI1       0.317500
@<TRIPOS>BOND
     1     1     2 1
     2     3     2 1
     3     3     5 1
     4     4     3 2
     5     5    25 1
     6     5    26 1
     7     6     5 1
     8     6    27 1
     9     6    28 1
    10     7     6 1
    11     7     8 1
    12     7    29 1
    13     7    30 1
    14     9     8 1
    15     9    31 1
    16     9    32 1
    17    10     9 1
    18    10    14 ar
    19    11    10 ar
    20    11    33 1
    21    12    11 ar
    22    12    16 ar
    23    12    34 1
    24    13     8 1
    25    13    18 1
    26    13    35 1
    27    13    36 1
    28    14    37 1
    29    15    14 ar
    30    15    38 1
    31    16    15 ar
    32    17    16 1
    33    18    19 ar
    34    19    20 ar
    35    19    39 1
    36    20    40 1
    37    21    18 ar
    38    21    22 ar
    39    21    41 1
    40    22    23 ar
    41    22    42 1
    42    23    20 ar
    43    23    24 1
    44     1    43 1
    45     2    44 1
@<TRIPOS>SUBSTRUCTURE
     1 QI1         1 TEMP              0 ****  ****    0 ROOT
