@<TRIPOS>MOLECULE
QI1
   44    45     1     0     0
SMALL
bcc


@<TRIPOS>ATOM
      1 O1           0.0000     0.0000     0.0000 oh         1 QI1      -0.437100
      2 N1           1.4160     0.0000     0.0000 ns         1 QI1      -0.061400
      3 C1           2.0910     0.0000     1.1660 c          1 QI1       0.568100
      4 O2           1.4850    -0.0000     2.2170 o          1 QI1      -0.615100
      5 C2           3.5970    -0.0000     1.1660 c3         1 QI1      -0.090400
      6 C3           4.1080     0.0000     2.6080 c3         1 QI1      -0.023400
      7 C4           5.6380    -0.0000     2.6080 c3         1 QI1       0.135800
      8 N2           6.1280    -0.0010     3.9920 n3         1 QI1      -0.522600
      9 C5           7.5770    -0.2390     4.0380 c3         1 QI1       0.193100
     10 C6           7.8550    -1.6970     3.7800 ca         1 QI1      -0.088300
     11 C7           7.8010    -2.6050     4.8200 ca         1 QI1      -0.080500
     12 C8           8.0550    -3.9430     4.5840 ca         1 QI1      -0.100000
     13 C9           5.7800     1.2530     4.6750 c3         1 QI1       0.193100
     14 C10          8.1580    -2.1270     2.5010 ca         1 QI1      -0.080500
     15 C11          8.4120    -3.4650     2.2650 ca         1 QI1      -0.100000
     16 C12          8.3640    -4.3730     3.3060 ca         1 QI1      -0.033100
     17 Cl1          8.6840    -6.0540     3.0090 cl         1 QI1      -0.030900
     18 C13          5.9300     1.0730     6.1630 ca         1 QI1      -0.088300
     19 C14          7.0980     1.4620     6.7910 ca         1 QI1      -0.080500
     20 C15          7.2370     1.2970     8.1560 ca         1 QI1      -0.100000
     21 C16          4.8980     0.5260     6.9010 ca         1 QI1      -0.080500
     22 C17          5.0350     0.3610     8.2660 ca         1 QI1      -0.100000
     23 C18          6.2060     0.7440     8.8950 ca         1 QI1      -0.033100
     24 Cl2          6.3800     0.5380    10.6100 cl         1 QI1      -0.030900
     25 H1           3.9580    -0.8850     0.6550 hc         1 QI1       0.024700
     26 H2           3.9580     0.8840     0.6540 hc         1 QI1       0.024700
     27 H3           3.7470    -0.8840     3.1190 hc         1 QI1       0.040700
     28 H4           3.7480     0.8850     3.1190 hc         1 QI1       0.040700
     29 H5           5.9980    -0.8850     2.0970 h1         1 QI1       0.011700
     30 H6           5.9990     0.8840     2.0970 h1         1 QI1       0.011700
     31 H7           8.0660     0.3620     3.2800 h1         1 QI1       0.020700
     32 H8           7.9570     0.0340     5.0150 h1         1 QI1       0.020700
     33 H9           7.5590    -2.2680     5.8210 ha         1 QI1       0.111500
     34 H10          8.0150    -4.6540     5.4010 ha         1 QI1       0.114500
     35 H11          4.7550     1.5170     4.4440 h1         1 QI1       0.020700
     36 H12          6.4400     2.0430     4.3380 h1         1 QI1       0.020700
     37 H13          8.1960    -1.4160     1.6850 ha         1 QI1       0.111500
     38 H14          8.6520    -3.8020     1.2630 ha         1 QI1       0.114500
     39 H15          7.9050     1.8950     6.2130 ha         1 QI1       0.111500
     40 H16          8.1540     1.6000     8.6480 ha         1 QI1       0.114500
     41 H17          3.9800     0.2250     6.4090 ha         1 QI1       0.111500
     42 H18          4.2260    -0.0700     8.8440 ha         1 QI1       0.114500
     43 H19         -0.3140     0.0000    -0.8890 ho         1 QI1       0.392000
     44 H20          1.9160     0.0000    -0.8670 hn         1 QI1       0.153500
@<TRIPOS>BOND
     1     1     2 1   
     2     1    43 1   
     3     2     3 1   
     4     2    44 1   
     5     3     4 2   
     6     3     5 1   
     7     5     6 1   
     8     5    25 1   
     9     5    26 1   
    10     6     7 1   
    11     6    27 1   
    12     6    28 1   
    13     7     8 1   
    14     7    29 1   
    15     7    30 1   
    16     8     9 1   
    17     8    13 1   
    18     9    10 1   
    19     9    31 1   
    20     9    32 1   
    21    10    11 ar  
    22    10    14 ar  
    23    11    12 ar  
    24    11    33 1   
    25    12    16 ar  
    26    12    34 1   
    27    13    18 1   
    28    13    35 1   
    29    13    36 1   
    30    14    15 ar  
    31    14    37 1   
    32    15    16 ar  
    33    15    38 1   
    34    16    17 1   
    35    18    19 ar  
    36    18    21 ar  
    37    19    20 ar  
    38    19    39 1   
    39    20    23 ar  
    40    20    40 1   
    41    21    22 ar  
    42    21    41 1   
    43    22    23 ar  
    44    22    42 1   
    45    23    24 1   
@<TRIPOS>SUBSTRUCTURE
     1 QI1         1 TEMP              0 ****  ****    0 ROOT
