@<TRIPOS>MOLECULE
QI2
   63    64     1     0     0
SMALL
bcc


@<TRIPOS>ATOM
      1 OAA          0.0000     0.0000     0.0000 oh         1 QI2      -0.437100
      2 NAB          1.4170     0.0000     0.0000 ns         1 QI2      -0.069400
      3 CAC          2.0900     0.0000     1.1670 c          1 QI2       0.571100
      4 OAD          1.4880     0.0920     2.2160 o          1 QI2      -0.611100
      5 CAE          3.5930    -0.1120     1.1690 c3         1 QI2      -0.125700
      6 CAF          4.0410    -0.9470     2.3710 c3         1 QI2      -0.035400
      7 CAG          3.5320    -2.3810     2.2120 c3         1 QI2       0.224400
      8 CAH          3.8610    -3.1710     3.4530 ca         1 QI2      -0.119300
      9 CAI          2.8900    -3.3870     4.4120 ca         1 QI2      -0.055500
     10 CAJ          3.1900    -4.1110     5.5510 ca         1 QI2      -0.137500
     11 CAK          4.2090     1.2850     1.2620 c3         1 QI2      -0.026400
     12 OAL          4.1600    -2.9870     1.0820 os         1 QI2      -0.409600
     13 CAM          5.1320    -3.6840     3.6280 ca         1 QI2      -0.055500
     14 CAN          5.4360    -4.4090     4.7650 ca         1 QI2      -0.137500
     15 CAO          4.4650    -4.6210     5.7290 ca         1 QI2       0.105900
     16 FAP          4.7590    -5.3280     6.8420 f          1 QI2      -0.129900
     17 CAQ          3.8520     2.0850     0.0070 c3         1 QI2       0.141800
     18 CAR          3.3230    -3.0680    -0.0740 c3         1 QI2       0.241700
     19 CAS          5.9550     3.2850     0.0020 c3         1 QI2       0.164100
     20 NAT          4.4920     3.4050     0.0690 n3         1 QI2      -0.534600
     21 CAU          3.9880     4.2850    -0.9920 c3         1 QI2       0.152800
     22 CAV          4.4820     5.7130    -0.7500 c3         1 QI2      -0.035400
     23 CAW          3.9550     6.6300    -1.8570 c3         1 QI2       0.033900
     24 CAX          4.4420     8.0350    -1.6180 ca         1 QI2      -0.097300
     25 CAY          3.6910     8.9060    -0.8510 ca         1 QI2      -0.074000
     26 CAZ          4.1370    10.1950    -0.6310 ca         1 QI2      -0.113300
     27 CBA          3.3160    11.1440     0.2060 c3         1 QI2       0.067200
     28 CBB          5.6440     8.4530    -2.1620 ca         1 QI2      -0.081000
     29 CBC          6.0910     9.7410    -1.9430 ca         1 QI2      -0.125000
     30 CBD          5.3360    10.6150    -1.1790 ca         1 QI2       0.099900
     31 FBE          5.7720    11.8760    -0.9650 f          1 QI2      -0.128900
     32 HAE          3.9200    -0.5910     0.2550 hc         1 QI2       0.039700
     33 HAF          3.6360    -0.5190     3.2800 hc         1 QI2       0.042700
     34 HAFA         5.1230    -0.9520     2.4250 hc         1 QI2       0.042700
     35 HAG          2.4580    -2.3700     2.0650 h1         1 QI2       0.030700
     36 HAI          1.8920    -2.9880     4.2730 ha         1 QI2       0.116500
     37 HAJ          2.4290    -4.2780     6.3030 ha         1 QI2       0.119000
     38 HAK          5.2860     1.2000     1.3420 hc         1 QI2       0.038700
     39 HAM          5.8920    -3.5180     2.8730 ha         1 QI2       0.116500
     40 HAN          6.4330    -4.8090     4.9030 ha         1 QI2       0.119000
     41 HAQ          2.7770     2.2070    -0.0500 h1         1 QI2       0.006700
     42 HAR          3.5290    -2.2290    -0.7280 h1         1 QI2      -0.011633
     43 HARA         3.5230    -3.9940    -0.6010 h1         1 QI2      -0.011633
     44 HARB         2.2840    -3.0430     0.2300 h1         1 QI2      -0.011633
     45 HAS          6.3900     3.6570     0.9220 h1         1 QI2       0.008033
     46 HASA         6.3270     3.8640    -0.8340 h1         1 QI2       0.008033
     47 HASB         6.2260     2.2440    -0.1300 h1         1 QI2       0.008033
     48 HAU          4.3480     3.9370    -1.9530 h1         1 QI2       0.006700
     49 HAV          4.1210     6.0610     0.2100 hc         1 QI2       0.028200
     50 HAW          4.3160     6.2810    -2.8170 hc         1 QI2       0.017200
     51 HAWA         2.8720     6.6170    -1.8520 hc         1 QI2       0.017200
     52 HAY          2.7340     8.5890    -0.4540 ha         1 QI2       0.114000
     53 HBA          3.0500    12.0110    -0.3870 hc         1 QI2       0.012367
     54 HBAA         3.8940    11.4590     1.0670 hc         1 QI2       0.012367
     55 HBAB         2.4150    10.6440     0.5390 hc         1 QI2       0.012367
     56 HBB          6.2340     7.7690    -2.7590 ha         1 QI2       0.108000
     57 HBC          7.0310    10.0680    -2.3710 ha         1 QI2       0.118000
     58 H27         -0.3140    -0.0610    -0.8870 ho         1 QI2       0.392000
     59 H28          1.9170    -0.0400    -0.8660 hn         1 QI2       0.158500
     60 H29          3.8220     1.7940     2.1370 hc         1 QI2       0.038700
     61 H30          4.2020     1.5540    -0.8700 h1         1 QI2       0.006700
     62 H31          2.9040     4.2730    -0.9870 h1         1 QI2       0.006700
     63 H32          5.5650     5.7260    -0.7550 hc         1 QI2       0.028200
@<TRIPOS>BOND
     1     1     2 1   
     2     1    58 1   
     3     2     3 1   
     4     2    59 1   
     5     3     4 2   
     6     3     5 1   
     7     5     6 1   
     8     5    11 1   
     9     5    32 1   
    10     6     7 1   
    11     6    33 1   
    12     6    34 1   
    13     7     8 1   
    14     7    12 1   
    15     7    35 1   
    16     8     9 ar  
    17     8    13 ar  
    18     9    10 ar  
    19     9    36 1   
    20    10    15 ar  
    21    10    37 1   
    22    11    17 1   
    23    11    38 1   
    24    11    60 1   
    25    12    18 1   
    26    13    14 ar  
    27    13    39 1   
    28    14    15 ar  
    29    14    40 1   
    30    15    16 1   
    31    17    20 1   
    32    17    41 1   
    33    17    61 1   
    34    18    42 1   
    35    18    43 1   
    36    18    44 1   
    37    19    20 1   
    38    19    45 1   
    39    19    46 1   
    40    19    47 1   
    41    20    21 1   
    42    21    22 1   
    43    21    48 1   
    44    21    62 1   
    45    22    23 1   
    46    22    49 1   
    47    22    63 1   
    48    23    24 1   
    49    23    50 1   
    50    23    51 1   
    51    24    25 ar  
    52    24    28 ar  
    53    25    26 ar  
    54    25    52 1   
    55    26    27 1   
    56    26    30 ar  
    57    27    53 1   
    58    27    54 1   
    59    27    55 1   
    60    28    29 ar  
    61    28    56 1   
    62    29    30 ar  
    63    29    57 1   
    64    30    31 1   
@<TRIPOS>SUBSTRUCTURE
     1 QI2         1 TEMP              0 ****  ****    0 ROOT
