@<TRIPOS>MOLECULE
molecule
   43    45     1     0     0
SMALL
bcc


@<TRIPOS>ATOM
      1 C1           0.0000     0.0000     0.0000 c          1 QI3       0.659100
      2 N1           2.0070     1.2240    -0.6440 n3         1 QI3      -0.805500
      3 O1          -0.6070     1.0490    -0.0360 o          1 QI3      -0.552100
      4 C2           1.5070     0.0000     0.0000 c3         1 QI3       0.186500
      5 C3           2.0310     0.0000     1.4520 c3         1 QI3      -0.077400
      6 C4           2.3280     1.5000     1.7140 c3         1 QI3       0.131100
      7 O2          -2.0890    -1.1670     0.0450 oh         1 QI3      -0.353100
      8 N2          -0.6740    -1.1670     0.0460 ns         1 QI3      -0.466400
      9 C5           3.3590     2.8280     3.3960 ca         1 QI3       0.135100
     10 C6           4.2620     3.0120     4.4340 ca         1 QI3      -0.180500
     11 C7           4.2810     4.2050     5.1270 ca         1 QI3      -0.082500
     12 C8           2.4770     3.8430     3.0570 ca         1 QI3      -0.180500
     13 C9           2.5000     5.0360     3.7540 ca         1 QI3      -0.082500
     14 C10          3.4000     5.2170     4.7880 ca         1 QI3      -0.006600
     15 Cl1          3.4260     6.7170     5.6630 cl         1 QI3      -0.108400
     16 O3           1.7940     3.1120    -2.2190 o          1 QI3      -0.613800
     17 S1           1.6880     1.6950    -2.1990 sy         1 QI3       1.442200
     18 C11          2.9990     1.0840    -3.2080 ca         1 QI3      -0.321500
     19 C12          4.1700     1.8090    -3.3320 ca         1 QI3      -0.020500
     20 C13          5.1970     1.3300    -4.1240 ca         1 QI3      -0.146000
     21 O4           0.5170     0.9960    -2.5980 o          1 QI3      -0.613800
     22 C14          2.8580    -0.1220    -3.8690 ca         1 QI3      -0.020500
     23 C15          3.8840    -0.6010    -4.6590 ca         1 QI3      -0.146000
     24 C16          5.0540     0.1260    -4.7890 ca         1 QI3       0.079400
     25 Cl2          6.3450    -0.4750    -5.7830 cl         1 QI3      -0.095400
     26 O5           3.3430     1.6550     2.7080 os         1 QI3      -0.320900
     27 C17          2.8330     1.9650     0.3270 c3         1 QI3       0.210800
     28 H1           1.8810    -0.8700    -0.5250 h1         1 QI3       0.057700
     29 H2           2.9380    -0.5880     1.5300 hc         1 QI3       0.073200
     30 H3           1.2710    -0.3630     2.1320 hc         1 QI3       0.073200
     31 H4           1.4230     2.0270     1.9900 h1         1 QI3       0.085700
     32 H5           4.9520     2.2200     4.6990 ha         1 QI3       0.150000
     33 H6           4.9860     4.3490     5.9380 ha         1 QI3       0.149500
     34 H7           1.7720     3.7010     2.2480 ha         1 QI3       0.150000
     35 H8           1.8120     5.8300     3.4900 ha         1 QI3       0.149500
     36 H9           4.2820     2.7510    -2.8100 ha         1 QI3       0.155500
     37 H10          6.1140     1.8980    -4.2230 ha         1 QI3       0.151000
     38 H11          1.9420    -0.6920    -3.7670 ha         1 QI3       0.155500
     39 H12          3.7730    -1.5450    -5.1790 ha         1 QI3       0.151000
     40 H13          2.6820     3.0320     0.2100 h1         1 QI3       0.066700
     41 H14          3.8780     1.7100     0.2020 h1         1 QI3       0.066700
     42 H15         -2.4040    -2.0500     0.1480 ho         1 QI3       0.398000
     43 H16         -0.1730    -2.0340     0.0560 hn         1 QI3       0.316500
@<TRIPOS>BOND
     1     1     4 1
     2     2     4 1
     3     2    27 1
     4     3     1 2
     5     4     5 1
     6     4    28 1
     7     5    29 1
     8     5    30 1
     9     6     5 1
    10     6    31 1
    11     7     8 1
    12     8     1 1
    13     9    12 ar
    14    10     9 ar
    15    10    11 ar
    16    10    32 1
    17    11    14 ar
    18    11    33 1
    19    12    13 ar
    20    12    34 1
    21    13    35 1
    22    14    13 ar
    23    14    15 1
    24    16    17 2
    25    17     2 1
    26    18    17 1
    27    18    22 ar
    28    19    18 ar
    29    19    36 1
    30    20    19 ar
    31    20    24 ar
    32    20    37 1
    33    21    17 2
    34    22    38 1
    35    23    22 ar
    36    23    39 1
    37    24    23 ar
    38    25    24 1
    39    26     6 1
    40    26     9 1
    41    27     6 1
    42    27    40 1
    43    27    41 1
    44     7    42 1
    45     8    43 1
@<TRIPOS>SUBSTRUCTURE
     1 QI3         1 TEMP              0 ****  ****    0 ROOT
