@<TRIPOS>MOLECULE
molecule
   24    24     1     0     0
SMALL
bcc


@<TRIPOS>ATOM
      1 C1           0.0000     0.0000     0.0000 c3         1 QIC       0.057800
      2 O1          -0.4760     1.1670     0.6720 oh         1 QIC      -0.605800
      3 C2           1.5300     0.0000     0.0000 c3         1 QIC      -0.083400
      4 O2           1.5630     1.1680     2.1160 oh         1 QIC      -0.596800
      5 C3           2.0400     0.0000     1.4430 c3         1 QIC       0.138600
      6 O3           2.0050    -1.2480     3.5110 oh         1 QIC      -0.607800
      7 C4           1.5290    -1.2480     2.1640 c3         1 QIC       0.140100
      8 O4          -0.4770    -2.4160     2.8370 oh         1 QIC      -0.596800
      9 C5          -0.0000    -1.2490     2.1640 c3         1 QIC       0.138600
     10 C6          -0.5100    -1.2490     0.7210 c3         1 QIC      -0.083400
     11 C7          -0.5020    -0.0000    -1.4220 c          1 QIC       0.867600
     12 HO1         -0.7180     1.8200     0.0360 ho         1 QIC       0.411000
     13 H2           1.8900    -0.8860    -0.5090 hc         1 QIC       0.056200
     14 H2A          1.8900     0.8860    -0.5090 hc         1 QIC       0.056200
     15 HO2          2.2950     1.7100     2.3610 ho         1 QIC       0.384500
     16 H3           3.1230    -0.0040     1.4410 h1         1 QIC       0.040200
     17 HO3          2.6490    -1.9280     3.6170 ho         1 QIC       0.384000
     18 H4           1.8890    -2.1310     1.6500 h1         1 QIC       0.036700
     19 HO4         -1.2230    -2.1900     3.3670 ho         1 QIC       0.384500
     20 H5          -0.3600    -0.3620     2.6710 h1         1 QIC       0.040200
     21 H6          -0.1460    -2.1330     0.2110 hc         1 QIC       0.056200
     22 H6A         -1.5940    -1.2470     0.7220 hc         1 QIC       0.056200
     23 O5           0.1920    -0.4430    -2.3070 o          1 QIC      -0.837300
     24 O6          -1.7190     0.4900    -1.7040 o          1 QIC      -0.837300
@<TRIPOS>BOND
     1    11     1 1
     2     2     1 1
     3     1     3 1
     4     1    10 1
     5     2    12 1
     6     3     5 1
     7     3    13 1
     8     3    14 1
     9     4     5 1
    10     4    15 1
    11     5     7 1
    12     5    16 1
    13     7     6 1
    14     6    17 1
    15     9     7 1
    16     7    18 1
    17     9     8 1
    18     8    19 1
    19    10     9 1
    20     9    20 1
    21    23    11 1
    22    10    21 1
    23    10    22 1
    24    11    24 1
@<TRIPOS>SUBSTRUCTURE
     1 QIC         1 TEMP              0 ****  ****    0 ROOT
