@<TRIPOS>MOLECULE
QIC
   24    23     1     0     0
SMALL
bcc


@<TRIPOS>ATOM
      1 C1         -1.0050   -0.0250   -0.0030 ce        1 QIC      0.022900
      2 O1         -0.9240    1.2280    0.5660 oh        1 QIC     -0.569100
      3 C2          2.4430   -0.3150    0.0500 c3        1 QIC     -0.134100
      4 O2          1.8390    1.1050    1.9330 oh        1 QIC     -0.629800
      5 C3          2.3060   -0.1770    1.5520 c3        1 QIC      0.127100
      6 O3          1.7950   -1.4510    3.5360 oh        1 QIC     -0.625800
      7 C4          1.4390   -1.2900    2.1630 c3        1 QIC      0.072100
      8 O4         -0.7460   -2.0860    2.8240 oh        1 QIC     -0.602800
      9 C5         -0.0870   -1.0560    2.0860 c3        1 QIC      0.177300
     10 C6         -0.6060   -1.1030    0.6960 c2        1 QIC     -0.278200
     11 C7         -1.5220   -0.0480   -1.4420 c         1 QIC      0.893800
     12 HO1        -1.2820    1.8570   -0.0920 ho        1 QIC      0.452000
     13 H2          2.9490   -1.2760   -0.2010 hc        1 QIC      0.052033
     14 H2A         1.4360   -0.3010   -0.4400 hc        1 QIC      0.052033
     15 HO2         1.0250    1.2800    1.4350 ho        1 QIC      0.436000
     16 H3          3.0480    0.5320   -0.3520 hc        1 QIC      0.052033
     17 HO3         1.7020   -0.5810    3.9450 ho        1 QIC      0.403000
     18 H4          3.3280   -0.2380    2.0340 h1        1 QIC      0.054700
     19 HO4        -0.2570   -2.1950    3.6500 ho        1 QIC      0.393000
     20 H5          1.6930   -2.2780    1.6910 h1        1 QIC      0.083700
     21 H6         -0.6980   -2.0960    0.2330 ha        1 QIC      0.158000
     22 H6A        -0.3240   -0.0660    2.5750 h1        1 QIC      0.039700
     23 O5         -1.5630   -1.1350   -2.0670 o         1 QIC     -0.814300
     24 O6         -1.8600    1.0840   -1.9010 o         1 QIC     -0.814300
@<TRIPOS>BOND
     1    1    2 1   
     2    1   10 2   
     3    1   11 1   
     4    2   12 1   
     5    3    5 1   
     6    3   13 1   
     7    3   14 1   
     8    3   16 1   
     9    4    5 1   
    10    4   15 1   
    11    5    7 1   
    12    5   18 1   
    13    6    7 1   
    14    6   17 1   
    15    7    9 1   
    16    7   20 1   
    17    8    9 1   
    18    8   19 1   
    19    9   10 1   
    20    9   22 1   
    21   10   21 1   
    22   11   23 1   
    23   11   24 1   
@<TRIPOS>SUBSTRUCTURE
     1 QIC         1 TEMP              0 ****  ****    0 ROOT
