@<TRIPOS>MOLECULE
molecule
   32    34     1     0     0
SMALL
bcc


@<TRIPOS>ATOM
      1 C01          0.0000     0.0000     0.0000 ca         1 QID      -0.343500
      2 C02          1.3850     0.0000     0.0000 ca         1 QID       0.035000
      3 C03          2.0890     0.0000     1.1880 ca         1 QID      -0.209000
      4 C04          1.4060     0.0010     2.3930 ca         1 QID       0.143600
      5 C05          0.0000     0.0020     2.3950 ca         1 QID      -0.228600
      6 C06         -0.6980     0.0010     1.1900 ca         1 QID       0.076000
      7 C07         -0.6970     0.0020     3.6950 c          1 QID       0.717100
      8 N08          2.0750     0.0010     3.6080 ns         1 QID      -0.450100
      9 N09          0.0500     0.0020     4.8200 n          1 QID      -0.353900
     10 O10         -1.9110     0.0030     3.7520 o          1 QID      -0.576500
     11 C11          1.3920     0.0020     4.7670 c          1 QID       0.815500
     12 O12          2.0150     0.0010     5.8100 o          1 QID      -0.622500
     13 O13         -0.5950     0.0030     6.0810 oh         1 QID      -0.317100
     14 S14         -0.8760     0.0060    -1.5280 sy         1 QID       1.295600
     15 C15         -1.1290     1.6910    -1.9790 ca         1 QID      -0.300500
     16 O16          0.0060    -0.5410    -2.4990 o          1 QID      -0.621300
     17 O17         -2.1620    -0.5330    -1.2560 o          1 QID      -0.621300
     18 C18         -0.1890     2.3480    -2.7500 ca         1 QID      -0.029000
     19 C19         -0.3870     3.6710    -3.1020 ca         1 QID      -0.148000
     20 C20         -1.5230     4.3350    -2.6840 ca         1 QID      -0.071000
     21 C21         -2.4630     3.6780    -1.9120 ca         1 QID      -0.148000
     22 C22         -2.2690     2.3530    -1.5640 ca         1 QID      -0.029000
     23 H02          1.9220    -0.0010    -0.9410 ha         1 QID       0.160000
     24 H03          3.1730     0.0000     1.1780 ha         1 QID       0.148000
     25 H06         -1.7810     0.0010     1.1880 ha         1 QID       0.181000
     26 HN08         3.0750     0.0010     3.6230 hn         1 QID       0.368500
     27 HO13        -0.8000    -0.8830     6.3300 ho         1 QID       0.414000
     28 H18          0.7030     1.8270    -3.0780 ha         1 QID       0.150500
     29 H19          0.3500     4.1860    -3.7070 ha         1 QID       0.139000
     30 H20         -1.6770     5.3720    -2.9580 ha         1 QID       0.136000
     31 H21         -3.3560     4.1980    -1.5860 ha         1 QID       0.139000
     32 H22         -3.0050     1.8380    -0.9590 ha         1 QID       0.150500
@<TRIPOS>BOND
     1     2     1 ar
     2     1     6 ar
     3     1    14 1
     4     3     2 ar
     5     2    23 1
     6     3     4 ar
     7     3    24 1
     8     8     4 1
     9     4     5 ar
    10     5     7 1
    11     5     6 ar
    12     6    25 1
    13     9     7 1
    14     7    10 2
    15     8    11 1
    16     8    26 1
    17    11     9 1
    18     9    13 1
    19    12    11 2
    20    13    27 1
    21    15    14 1
    22    14    17 2
    23    14    16 2
    24    22    15 ar
    25    15    18 ar
    26    19    18 ar
    27    18    28 1
    28    20    19 ar
    29    19    29 1
    30    21    20 ar
    31    20    30 1
    32    21    22 ar
    33    21    31 1
    34    22    32 1
@<TRIPOS>SUBSTRUCTURE
     1 QID         1 TEMP              0 ****  ****    0 ROOT
