@<TRIPOS>MOLECULE
QID
   32    34     1     0     0
SMALL
bcc


@<TRIPOS>ATOM
      1 C01          0.0000     0.0000     0.0000 ca         1 QID      -0.193500
      2 C02          1.3850     0.0000     0.0000 ca         1 QID       0.070000
      3 C03          2.0890     0.0000     1.1880 ca         1 QID      -0.190000
      4 C04          1.4060     0.0010     2.3930 ca         1 QID      -0.014400
      5 C05          0.0000     0.0020     2.3950 ca         1 QID      -0.252600
      6 C06         -0.6980     0.0010     1.1900 ca         1 QID       0.117000
      7 C07         -0.6970     0.0020     3.6950 c          1 QID       0.629100
      8 N08          2.0750     0.0010     3.6080 ns         1 QID       0.004900
      9 N09          0.0500     0.0020     4.8200 n          1 QID       0.045100
     10 O10         -1.9110     0.0030     3.7520 o          1 QID      -0.620500
     11 C11          1.3920     0.0020     4.7670 c          1 QID       0.581500
     12 O12          2.0150     0.0010     5.8100 o          1 QID      -0.677500
     13 O13         -0.5950     0.0030     6.0810 oh         1 QID      -0.404100
     14 S14         -0.8760     0.0060    -1.5280 sy         1 QID       0.966600
     15 C15         -1.1290     1.6910    -1.9790 ca         1 QID      -0.146500
     16 O16          0.0060    -0.5410    -2.4990 o          1 QID      -0.587800
     17 O17         -2.1620    -0.5330    -1.2560 o          1 QID      -0.587800
     18 C18         -0.1890     2.3480    -2.7500 ca         1 QID       0.002000
     19 C19         -0.3870     3.6710    -3.1020 ca         1 QID      -0.130000
     20 C20         -1.5230     4.3350    -2.6840 ca         1 QID      -0.046000
     21 C21         -2.4630     3.6780    -1.9120 ca         1 QID      -0.130000
     22 C22         -2.2690     2.3530    -1.5640 ca         1 QID       0.002000
     23 H02          1.9220    -0.0010    -0.9410 ha         1 QID       0.125000
     24 H03          3.1730     0.0000     1.1780 ha         1 QID       0.121000
     25 H06         -1.7810     0.0010     1.1880 ha         1 QID       0.145000
     26 HN08         3.0750     0.0010     3.6230 hn         1 QID       0.198500
     27 HO13        -0.8000    -0.8830     6.3300 ho         1 QID       0.407000
     28 H18          0.7030     1.8270    -3.0780 ha         1 QID       0.122000
     29 H19          0.3500     4.1860    -3.7070 ha         1 QID       0.110000
     30 H20         -1.6770     5.3720    -2.9580 ha         1 QID       0.103000
     31 H21         -3.3560     4.1980    -1.5860 ha         1 QID       0.110000
     32 H22         -3.0050     1.8380    -0.9590 ha         1 QID       0.122000
@<TRIPOS>BOND
     1     1     2 ar  
     2     1     6 ar  
     3     1    14 1   
     4     2     3 ar  
     5     2    23 1   
     6     3     4 ar  
     7     3    24 1   
     8     4     5 ar  
     9     4     8 1   
    10     5     6 ar  
    11     5     7 1   
    12     6    25 1   
    13     7     9 1   
    14     7    10 2   
    15     8    11 1   
    16     8    26 1   
    17     9    11 1   
    18     9    13 1   
    19    11    12 2   
    20    13    27 1   
    21    14    15 1   
    22    14    16 2   
    23    14    17 2   
    24    15    18 ar  
    25    15    22 ar  
    26    18    19 ar  
    27    18    28 1   
    28    19    20 ar  
    29    19    29 1   
    30    20    21 ar  
    31    20    30 1   
    32    21    22 ar  
    33    21    31 1   
    34    22    32 1   
@<TRIPOS>SUBSTRUCTURE
     1 QID         1 TEMP              0 ****  ****    0 ROOT
