@<TRIPOS>MOLECULE
QIG
   43    47     1     0     0
SMALL
bcc


@<TRIPOS>ATOM
      1 C1           0.0000     0.0000     0.0000 c3         1 QIG      -0.036400
      2 C2           1.5070     0.0000     0.0000 ca         1 QIG       0.356600
      3 C3           2.1900     0.0000     1.2030 ca         1 QIG      -0.207300
      4 C4           3.5770    -0.0010     1.1980 ca         1 QIG      -0.082000
      5 C5           4.2330    -0.0010    -0.0220 ca         1 QIG      -0.181300
      6 C6           3.4820    -0.0000    -1.1950 cp         1 QIG       0.310300
      7 N7           2.1560    -0.0060    -1.1460 nb         1 QIG      -0.528000
      8 C8           4.1690    -0.0010    -2.5090 cp         1 QIG       0.599000
      9 N9           3.4300    -0.0010    -3.6150 nb         1 QIG      -0.672000
     10 C10          3.9870    -0.0010    -4.8180 ca         1 QIG       0.535200
     11 N11          3.2090    -0.0010    -5.9570 nu         1 QIG      -0.279300
     12 C12          1.8180     0.1200    -5.8560 ca         1 QIG      -0.052400
     13 C13          1.2630     0.9480    -4.8800 ca         1 QIG      -0.039000
     14 C14         -0.0910     1.0800    -4.7640 ca         1 QIG      -0.101000
     15 C15         -0.9370     0.3840    -5.6240 ca         1 QIG      -0.188200
     16 N16         -2.3010     0.3080    -5.7560 na         1 QIG       0.409900
     17 N18         -2.6100    -0.5620    -6.8080 nc         1 QIG      -0.636100
     18 C19         -1.5160    -1.0310    -7.3360 cd         1 QIG       0.434800
     19 C20         -0.3870    -0.4550    -6.6130 ca         1 QIG      -0.253900
     20 C21          1.0030    -0.5770    -6.7250 ca         1 QIG      -0.047000
     21 C22          5.4010    -0.0010    -4.9030 ca         1 QIG      -0.317600
     22 C23          6.0700    -0.0010    -6.1310 ca         1 QIG      -0.067000
     23 C24          7.4340    -0.0010    -6.1550 ca         1 QIG      -0.116000
     24 C25          8.1690    -0.0010    -4.9730 ca         1 QIG      -0.070000
     25 C26          7.5480    -0.0020    -3.7590 ca         1 QIG      -0.158300
     26 C27          6.1470    -0.0010    -3.6990 ca         1 QIG       0.439600
     27 N28          5.4890     0.0040    -2.5320 nb         1 QIG      -0.668000
     28 H1          -0.3610    -0.7190    -0.7250 hc         1 QIG       0.011700
     29 H1A         -0.3610    -0.2690     0.9850 hc         1 QIG       0.011700
     30 H1B         -0.3610     0.9880    -0.2600 hc         1 QIG       0.011700
     31 H3           1.6470     0.0000     2.1400 ha         1 QIG       0.113000
     32 H4           4.1340    -0.0010     2.1270 ha         1 QIG       0.109000
     33 H5           5.3160     0.0010    -0.0630 ha         1 QIG       0.135000
     34 HN11         3.6380    -0.1000    -6.8560 hn         1 QIG       0.288800
     35 H13          1.9140     1.5000    -4.2130 ha         1 QIG       0.134000
     36 H14         -0.5080     1.7270    -4.0010 ha         1 QIG       0.107000
     37 HN16        -2.9670     0.7960    -5.1910 hn         1 QIG       0.152700
     38 H19         -1.4550    -1.7240    -8.1660 h4         1 QIG       0.012800
     39 H21          1.4340    -1.1020    -7.5680 ha         1 QIG       0.102000
     40 H23          5.5090    -0.0010    -7.0580 ha         1 QIG       0.100000
     41 H24          7.9520     0.0000    -7.1060 ha         1 QIG       0.105000
     42 H25          9.2510    -0.0000    -5.0180 ha         1 QIG       0.103000
     43 H26          8.1330    -0.0020    -2.8470 ha         1 QIG       0.120000
@<TRIPOS>BOND
     1     1     2 1   
     2     1    28 1   
     3     1    29 1   
     4     1    30 1   
     5     2     3 ar  
     6     2     7 ar  
     7     3     4 ar  
     8     3    31 1   
     9     4     5 ar  
    10     4    32 1   
    11     5     6 ar  
    12     5    33 1   
    13     6     7 ar  
    14     6     8 1   
    15     8     9 ar  
    16     8    27 ar  
    17     9    10 ar  
    18    10    11 1   
    19    10    21 ar  
    20    11    12 1   
    21    11    34 1   
    22    12    13 ar  
    23    12    20 ar  
    24    13    14 ar  
    25    13    35 1   
    26    14    15 ar  
    27    14    36 1   
    28    15    16 1   
    29    15    19 ar  
    30    16    17 1   
    31    16    37 1   
    32    17    18 2   
    33    18    19 1   
    34    18    38 1   
    35    19    20 ar  
    36    20    39 1   
    37    21    22 ar  
    38    21    26 ar  
    39    22    23 ar  
    40    22    40 1   
    41    23    24 ar  
    42    23    41 1   
    43    24    25 ar  
    44    24    42 1   
    45    25    26 ar  
    46    25    43 1   
    47    26    27 ar  
@<TRIPOS>SUBSTRUCTURE
     1 QIG         1 TEMP              0 ****  ****    0 ROOT
