@<TRIPOS>MOLECULE
molecule
   43    47     1     0     0
SMALL
bcc


@<TRIPOS>ATOM
      1 C1           0.0000     0.0000     0.0000 c3         1 QIG      -0.137400
      2 C2           1.5070     0.0000     0.0000 ca         1 QIG       0.418600
      3 C3           2.1900     0.0000     1.2030 ca         1 QIG      -0.239300
      4 C4           3.5770    -0.0010     1.1980 ca         1 QIG      -0.105000
      5 C5           4.2330    -0.0010    -0.0220 ca         1 QIG      -0.209300
      6 C6           3.4820    -0.0000    -1.1950 cp         1 QIG       0.379300
      7 N7           2.1560    -0.0060    -1.1460 nb         1 QIG      -0.653000
      8 C8           4.1690    -0.0010    -2.5090 cp         1 QIG       0.686000
      9 N9           3.4300    -0.0010    -3.6150 nb         1 QIG      -0.779000
     10 C10          3.9870    -0.0010    -4.8180 ca         1 QIG       0.740200
     11 N11          3.2090    -0.0010    -5.9570 nu         1 QIG      -0.753300
     12 C12          1.8180     0.1200    -5.8560 ca         1 QIG       0.107600
     13 C13          1.2630     0.9480    -4.8800 ca         1 QIG      -0.058000
     14 C14         -0.0910     1.0800    -4.7640 ca         1 QIG      -0.143000
     15 C15         -0.9370     0.3840    -5.6240 ca         1 QIG      -0.027200
     16 N16         -2.3010     0.3080    -5.7560 na         1 QIG      -0.056100
     17 N18         -2.6100    -0.5620    -6.8080 nc         1 QIG      -0.501100
     18 C19         -1.5160    -1.0310    -7.3360 cd         1 QIG       0.375800
     19 C20         -0.3870    -0.4550    -6.6130 ca         1 QIG      -0.241900
     20 C21          1.0030    -0.5770    -6.7250 ca         1 QIG      -0.092000
     21 C22          5.4010    -0.0010    -4.9030 ca         1 QIG      -0.321600
     22 C23          6.0700    -0.0010    -6.1310 ca         1 QIG      -0.090000
     23 C24          7.4340    -0.0010    -6.1550 ca         1 QIG      -0.144000
     24 C25          8.1690    -0.0010    -4.9730 ca         1 QIG      -0.096000
     25 C26          7.5480    -0.0020    -3.7590 ca         1 QIG      -0.181300
     26 C27          6.1470    -0.0010    -3.6990 ca         1 QIG       0.479600
     27 N28          5.4890     0.0040    -2.5320 nb         1 QIG      -0.770000
     28 H1          -0.3610    -0.7190    -0.7250 hc         1 QIG       0.051033
     29 H1A         -0.3610    -0.2690     0.9850 hc         1 QIG       0.051033
     30 H1B         -0.3610     0.9880    -0.2600 hc         1 QIG       0.051033
     31 H3           1.6470     0.0000     2.1400 ha         1 QIG       0.137000
     32 H4           4.1340    -0.0010     2.1270 ha         1 QIG       0.140000
     33 H5           5.3160     0.0010    -0.0630 ha         1 QIG       0.163000
     34 HN11         3.6380    -0.1000    -6.8560 hn         1 QIG       0.456800
     35 H13          1.9140     1.5000    -4.2130 ha         1 QIG       0.163000
     36 H14         -0.5080     1.7270    -4.0010 ha         1 QIG       0.135000
     37 HN16        -2.9670     0.7960    -5.1910 hn         1 QIG       0.330700
     38 H19         -1.4550    -1.7240    -8.1660 h4         1 QIG       0.060800
     39 H21          1.4340    -1.1020    -7.5680 ha         1 QIG       0.129000
     40 H23          5.5090    -0.0010    -7.0580 ha         1 QIG       0.123000
     41 H24          7.9520     0.0000    -7.1060 ha         1 QIG       0.133000
     42 H25          9.2510    -0.0000    -5.0180 ha         1 QIG       0.135000
     43 H26          8.1330    -0.0020    -2.8470 ha         1 QIG       0.152000
@<TRIPOS>BOND
     1     1     2 1
     2     2     3 ar
     3     2     7 ar
     4     3     4 ar
     5     4     5 ar
     6     5     6 ar
     7     6     7 ar
     8     6     8 1
     9     8     9 ar
    10     8    27 ar
    11     9    10 ar
    12    10    11 1
    13    10    21 ar
    14    11    12 1
    15    12    13 ar
    16    12    20 ar
    17    13    14 ar
    18    14    15 ar
    19    15    16 1
    20    15    19 ar
    21    16    17 1
    22    17    18 2
    23    18    19 1
    24    19    20 ar
    25    21    22 ar
    26    21    26 ar
    27    22    23 ar
    28    23    24 ar
    29    24    25 ar
    30    25    26 ar
    31    26    27 ar
    32     1    28 1
    33     1    29 1
    34     1    30 1
    35     3    31 1
    36     4    32 1
    37     5    33 1
    38    11    34 1
    39    13    35 1
    40    14    36 1
    41    16    37 1
    42    18    38 1
    43    20    39 1
    44    22    40 1
    45    23    41 1
    46    24    42 1
    47    25    43 1
@<TRIPOS>SUBSTRUCTURE
     1 QIG         1 TEMP              0 ****  ****    0 ROOT
