@<TRIPOS>MOLECULE
molecule
   72    74     1     0     0
SMALL
bcc


@<TRIPOS>ATOM
      1 C15          0.0000     0.0000     0.0000 ca         1 QIN       0.717200
      2 C16          1.3860     0.0000     0.0000 ca         1 QIN      -0.325300
      3 C17          2.0050     0.0000     1.2270 ca         1 QIN      -0.064600
      4 C18          1.2930     0.0020     2.4040 ca         1 QIN      -0.236300
      5 C19         -0.0890     0.0020     2.2960 ca         1 QIN       0.683200
      6 N3          -0.7570     0.0020     1.1200 nb         1 QIN      -0.735000
      7 N4          -0.8930     0.0040     3.4760 nh         1 QIN      -0.726200
      8 S1          -2.4500     0.7430     3.3740 s6         1 QIN       1.228900
      9 O1          -2.4660     1.6880     2.2730 o          1 QIN      -0.576800
     10 C29         -0.7350    -1.1400     4.4180 c3         1 QIN       0.209100
     11 C34          3.4900     0.0000     1.2850 c          1 QIN       0.679700
     12 N35          4.1320    -0.5660     0.2000 ns         1 QIN      -0.577900
     13 C36          5.5770    -0.6630     0.1190 c3         1 QIN       0.072700
     14 C28          6.1610     0.6520    -0.4600 c3         1 QIN       0.014500
     15 C56          5.9940    -1.9380    -0.6450 c3         1 QIN      -0.024100
     16 O4           4.0520     0.4700     2.2710 o          1 QIN      -0.580100
     17 C22         -3.4620    -0.6370     2.8810 c3         1 QIN      -0.256300
     18 O2          -2.8910     1.1540     4.6940 o          1 QIN      -0.576800
     19 C61          5.5690    -3.5880     1.2720 cc         1 QIN      -0.159000
     20 C62          5.3900    -3.1920    -0.0710 cc         1 QIN      -0.136300
     21 C63          4.6220    -4.0520    -0.7980 cd         1 QIN      -0.128100
     22 S2           4.0980    -5.3740     0.1560 ss         1 QIN       0.027200
     23 C64          4.9140    -4.7710     1.5360 cd         1 QIN      -0.113100
     24 C8           5.7260     0.9260    -1.9170 c3         1 QIN      -0.046400
     25 N1           7.6250     0.6580    -0.3630 nz         1 QIN      -0.812600
     26 C10          6.2960     2.2400    -2.4720 c3         1 QIN      -0.092400
     27 C11          5.8150     2.5540    -3.8920 c3         1 QIN      -0.077400
     28 C13          6.3440     3.8720    -4.4370 c3         1 QIN      -0.089100
     29 N2          -0.6480    -0.0000    -1.2590 nu         1 QIN      -0.912900
     30 C5           0.0660    -0.0020    -2.4940 c3         1 QIN       0.268800
     31 C1          -0.7440    -0.0560    -4.9950 cx         1 QIN      -0.124400
     32 C2          -1.2730    -1.2970    -4.3370 cx         1 QIN      -0.118700
     33 C3          -1.1600    -0.0240    -3.5570 cx         1 QIN      -0.149700
     34 H16          1.9540    -0.0010    -0.9230 ha         1 QIN       0.135000
     35 H18          1.7880     0.0020     3.3670 ha         1 QIN       0.177000
     36 H291         0.1810    -1.0190     4.9840 h1         1 QIN       0.053700
     37 H292        -1.5780    -1.1680     5.0980 h1         1 QIN       0.053700
     38 H293        -0.6930    -2.0670     3.8580 h1         1 QIN       0.053700
     39 HN35         3.5810    -0.9210    -0.5560 hn         1 QIN       0.345500
     40 H36          5.9500    -0.7610     1.1310 h1         1 QIN       0.079700
     41 H28          6.0020     0.7300     0.6090 hx         1 QIN       0.174700
     42 H561         5.9380    -1.7970    -1.7170 hc         1 QIN       0.042700
     43 H562         7.0530    -2.0390    -0.4440 hc         1 QIN       0.042700
     44 H221        -2.8680    -1.3310     2.2990 h1         1 QIN       0.104033
     45 H222        -3.8430    -1.1380     3.7630 h1         1 QIN       0.104033
     46 H223        -4.2920    -0.2800     2.2830 h1         1 QIN       0.104033
     47 H63          4.3740    -3.9170    -1.8440 h4         1 QIN       0.172000
     48 H64          4.9140    -5.2610     2.5020 h4         1 QIN       0.184000
     49 H81          4.6450     0.9710    -1.9560 hc         1 QIN       0.081200
     50 H82          6.0650     0.1080    -2.5410 hc         1 QIN       0.081200
     51 HN11         8.0130     0.1690    -1.1450 hn         1 QIN       0.449467
     52 HN12         7.9560     1.6020    -0.3630 hn         1 QIN       0.449467
     53 H101         7.3770     2.1740    -2.4790 hc         1 QIN       0.039700
     54 H102         6.0000     3.0500    -1.8180 hc         1 QIN       0.039700
     55 H111         4.7330     2.5910    -3.8900 hc         1 QIN       0.048200
     56 H112         6.1340     1.7550    -4.5500 hc         1 QIN       0.048200
     57 H131         6.0330     4.6820    -3.7900 hc         1 QIN       0.046367
     58 H132         7.4260     3.8370    -4.4780 hc         1 QIN       0.046367
     59 H133         5.9510     4.0340    -5.4340 hc         1 QIN       0.046367
     60 HN2         -1.6490     0.0010    -1.2830 hn         1 QIN       0.463800
     61 H51          0.7080    -0.8740    -2.5310 h1         1 QIN       0.033200
     62 H52          0.6760     0.8910    -2.5520 h1         1 QIN       0.033200
     63 H11         -1.4190     0.4300    -5.6880 hc         1 QIN       0.078700
     64 H12          0.3250    -0.0400    -5.1720 hc         1 QIN       0.078700
     65 H2          -0.5110    -2.0290    -4.0980 hc         1 QIN       0.073700
     66 H3          -2.0650     0.5120    -3.2970 hc         1 QIN       0.106700
     67 H41         -2.9850    -2.4610    -3.9370 hc         1 QIN       0.045033
     68 H42         -3.2980    -0.9570    -4.8140 hc         1 QIN       0.045033
     69 H43         -2.5590    -2.3310    -5.6490 hc         1 QIN       0.045033
     70 C4          -2.6200    -1.7950    -4.7090 c3         1 QIN      -0.064100
     71 H13          7.9030     0.2540     0.5100 hn         1 QIN       0.449467
     72 H61          6.1480    -3.0330     2.0010 ha         1 QIN       0.149000
@<TRIPOS>BOND
     1     1     6 ar
     2     1     2 ar
     3     1    29 1
     4     2     3 ar
     5     2    34 1
     6     3     4 ar
     7     3    11 1
     8     4     5 ar
     9     4    35 1
    10     5     7 1
    11     5     6 ar
    12     7    10 1
    13     7     8 1
    14     8    17 1
    15     8     9 2
    16     8    18 2
    17    10    36 1
    18    10    37 1
    19    10    38 1
    20    11    16 2
    21    11    12 1
    22    12    13 1
    23    12    39 1
    24    13    15 1
    25    13    14 1
    26    13    40 1
    27    14    24 1
    28    14    25 1
    29    14    41 1
    30    15    20 1
    31    15    42 1
    32    15    43 1
    33    17    44 1
    34    17    45 1
    35    17    46 1
    36    19    23 2
    37    19    20 1
    38    19    72 1
    39    20    21 2
    40    21    22 1
    41    21    47 1
    42    22    23 1
    43    23    48 1
    44    24    26 1
    45    24    49 1
    46    24    50 1
    47    25    51 1
    48    25    52 1
    49    26    27 1
    50    26    53 1
    51    26    54 1
    52    27    28 1
    53    27    55 1
    54    27    56 1
    55    28    57 1
    56    28    58 1
    57    28    59 1
    58    29    30 1
    59    29    60 1
    60    30    33 1
    61    30    61 1
    62    30    62 1
    63    31    33 1
    64    31    32 1
    65    31    63 1
    66    31    64 1
    67    32    33 1
    68    32    70 1
    69    32    65 1
    70    33    66 1
    71    70    67 1
    72    70    68 1
    73    70    69 1
    74    71    25 1
@<TRIPOS>SUBSTRUCTURE
     1 QIN         1 TEMP              0 ****  ****    0 ROOT
