@<TRIPOS>MOLECULE
QIN
   72    74     1     0     0
SMALL
bcc


@<TRIPOS>ATOM
      1 C15          0.0000     0.0000     0.0000 ca         1 QIN       0.552200
      2 C16          1.3860     0.0000     0.0000 ca         1 QIN      -0.324300
      3 C17          2.0050     0.0000     1.2270 ca         1 QIN      -0.078600
      4 C18          1.2930     0.0020     2.4040 ca         1 QIN      -0.213300
      5 C19         -0.0890     0.0020     2.2960 ca         1 QIN       0.591200
      6 N3          -0.7570     0.0020     1.1200 nb         1 QIN      -0.639000
      7 N4          -0.8930     0.0040     3.4760 nh         1 QIN      -0.457200
      8 S1          -2.4500     0.7430     3.3740 s6         1 QIN       0.881900
      9 O1          -2.4660     1.6880     2.2730 o          1 QIN      -0.539800
     10 C29         -0.7350    -1.1400     4.4180 c3         1 QIN       0.258100
     11 C34          3.4900     0.0000     1.2850 c          1 QIN       0.613700
     12 N35          4.1320    -0.5660     0.2000 ns         1 QIN      -0.206900
     13 C36          5.5770    -0.6630     0.1190 c3         1 QIN      -0.013300
     14 C28          6.1610     0.6520    -0.4600 c3         1 QIN      -0.180500
     15 C56          5.9940    -1.9380    -0.6450 c3         1 QIN       0.049900
     16 O4           4.0520     0.4700     2.2710 o          1 QIN      -0.617100
     17 C22         -3.4620    -0.6370     2.8810 c3         1 QIN      -0.016300
     18 O2          -2.8910     1.1540     4.6940 o          1 QIN      -0.539800
     19 C61          5.5690    -3.5880     1.2720 cc         1 QIN      -0.134000
     20 C62          5.3900    -3.1920    -0.0710 cc         1 QIN      -0.151300
     21 C63          4.6220    -4.0520    -0.7980 cd         1 QIN      -0.029100
     22 S2           4.0980    -5.3740     0.1560 ss         1 QIN      -0.127800
     23 C64          4.9140    -4.7710     1.5360 cd         1 QIN      -0.009100
     24 C8           5.7260     0.9260    -1.9170 c3         1 QIN       0.028600
     25 N1           7.6250     0.6580    -0.3630 nz         1 QIN       0.061400
     26 C10          6.2960     2.2400    -2.4720 c3         1 QIN      -0.035400
     27 C11          5.8150     2.5540    -3.8920 c3         1 QIN      -0.016400
     28 C13          6.3440     3.8720    -4.4370 c3         1 QIN       0.012900
     29 N2          -0.6480    -0.0000    -1.2590 nu         1 QIN      -0.522900
     30 C5           0.0660    -0.0020    -2.4940 c3         1 QIN       0.208800
     31 C1          -0.7440    -0.0560    -4.9950 cx         1 QIN      -0.068400
     32 C2          -1.2730    -1.2970    -4.3370 cx         1 QIN      -0.099700
     33 C3          -1.1600    -0.0240    -3.5570 cx         1 QIN      -0.130700
     34 H16          1.9540    -0.0010    -0.9230 ha         1 QIN       0.122000
     35 H18          1.7880     0.0020     3.3670 ha         1 QIN       0.151000
     36 H291         0.1810    -1.0190     4.9840 h1         1 QIN       0.009700
     37 H292        -1.5780    -1.1680     5.0980 h1         1 QIN       0.009700
     38 H293        -0.6930    -2.0670     3.8580 h1         1 QIN       0.009700
     39 HN35         3.5810    -0.9210    -0.5560 hn         1 QIN       0.209500
     40 H36          5.9500    -0.7610     1.1310 h1         1 QIN       0.058700
     41 H28          6.0020     0.7300     0.6090 hx         1 QIN       0.155700
     42 H561         5.9380    -1.7970    -1.7170 hc         1 QIN       0.012700
     43 H562         7.0530    -2.0390    -0.4440 hc         1 QIN       0.012700
     44 H221        -2.8680    -1.3310     2.2990 h1         1 QIN       0.070700
     45 H222        -3.8430    -1.1380     3.7630 h1         1 QIN       0.070700
     46 H223        -4.2920    -0.2800     2.2830 h1         1 QIN       0.070700
     47 H63          4.3740    -3.9170    -1.8440 h4         1 QIN       0.152000
     48 H64          4.9140    -5.2610     2.5020 h4         1 QIN       0.160000
     49 H81          4.6450     0.9710    -1.9560 hc         1 QIN       0.046700
     50 H82          6.0650     0.1080    -2.5410 hc         1 QIN       0.046700
     51 HN11         8.0130     0.1690    -1.1450 hn         1 QIN       0.224467
     52 HN12         7.9560     1.6020    -0.3630 hn         1 QIN       0.224467
     53 H101         7.3770     2.1740    -2.4790 hc         1 QIN       0.010200
     54 H102         6.0000     3.0500    -1.8180 hc         1 QIN       0.010200
     55 H111         4.7330     2.5910    -3.8900 hc         1 QIN       0.017700
     56 H112         6.1340     1.7550    -4.5500 hc         1 QIN       0.017700
     57 H131         6.0330     4.6820    -3.7900 hc         1 QIN       0.011700
     58 H132         7.4260     3.8370    -4.4780 hc         1 QIN       0.011700
     59 H133         5.9510     4.0340    -5.4340 hc         1 QIN       0.011700
     60 HN2         -1.6490     0.0010    -1.2830 hn         1 QIN       0.318800
     61 H51          0.7080    -0.8740    -2.5310 h1         1 QIN       0.004700
     62 H52          0.6760     0.8910    -2.5520 h1         1 QIN       0.004700
     63 H11         -1.4190     0.4300    -5.6880 hc         1 QIN       0.049700
     64 H12          0.3250    -0.0400    -5.1720 hc         1 QIN       0.049700
     65 H2          -0.5110    -2.0290    -4.0980 hc         1 QIN       0.051700
     66 H3          -2.0650     0.5120    -3.2970 hc         1 QIN       0.084700
     67 H41         -2.9850    -2.4610    -3.9370 hc         1 QIN       0.010033
     68 H42         -3.2980    -0.9570    -4.8140 hc         1 QIN       0.010033
     69 H43         -2.5590    -2.3310    -5.6490 hc         1 QIN       0.010033
     70 C4          -2.6200    -1.7950    -4.7090 c3         1 QIN       0.040900
     71 H13          7.9030     0.2540     0.5100 hn         1 QIN       0.224467
     72 H61          6.1480    -3.0330     2.0010 ha         1 QIN       0.125000
@<TRIPOS>BOND
     1     1     2 ar  
     2     1     6 ar  
     3     1    29 1   
     4     2     3 ar  
     5     2    34 1   
     6     3     4 ar  
     7     3    11 1   
     8     4     5 ar  
     9     4    35 1   
    10     5     6 ar  
    11     5     7 1   
    12     7     8 1   
    13     7    10 1   
    14     8     9 2   
    15     8    17 1   
    16     8    18 2   
    17    10    36 1   
    18    10    37 1   
    19    10    38 1   
    20    11    12 1   
    21    11    16 2   
    22    12    13 1   
    23    12    39 1   
    24    13    14 1   
    25    13    15 1   
    26    13    40 1   
    27    14    24 1   
    28    14    25 1   
    29    14    41 1   
    30    15    20 1   
    31    15    42 1   
    32    15    43 1   
    33    17    44 1   
    34    17    45 1   
    35    17    46 1   
    36    19    20 1   
    37    19    23 2   
    38    19    72 1   
    39    20    21 2   
    40    21    22 1   
    41    21    47 1   
    42    22    23 1   
    43    23    48 1   
    44    24    26 1   
    45    24    49 1   
    46    24    50 1   
    47    25    51 1   
    48    25    52 1   
    49    25    71 1   
    50    26    27 1   
    51    26    53 1   
    52    26    54 1   
    53    27    28 1   
    54    27    55 1   
    55    27    56 1   
    56    28    57 1   
    57    28    58 1   
    58    28    59 1   
    59    29    30 1   
    60    29    60 1   
    61    30    33 1   
    62    30    61 1   
    63    30    62 1   
    64    31    32 1   
    65    31    33 1   
    66    31    63 1   
    67    31    64 1   
    68    32    33 1   
    69    32    65 1   
    70    32    70 1   
    71    33    66 1   
    72    67    70 1   
    73    68    70 1   
    74    69    70 1   
@<TRIPOS>SUBSTRUCTURE
     1 QIN         1 TEMP              0 ****  ****    0 ROOT
