@<TRIPOS>MOLECULE
QIU
   37    38     1     0     0
SMALL
bcc


@<TRIPOS>ATOM
      1 N            0.0000     0.0000     0.0000 ns         1 QIU      -0.203900
      2 C            2.1000     0.0070    -1.3060 c3         1 QIU      -0.069100
      3 O           -6.5070     2.6400     8.3500 o          1 QIU      -0.883800
      4 C1           1.3480     0.0000     0.0000 c          1 QIU       0.566100
      5 C10         -4.0410     3.6880     4.1540 ca         1 QIU      -0.120000
      6 C11         -4.3870     4.8830     4.7530 ca         1 QIU      -0.146000
      7 C12         -5.0860     4.8890     5.9440 ca         1 QIU      -0.053000
      8 C13         -5.4460     3.6830     6.5500 ca         1 QIU      -0.106600
      9 C14         -6.1950     3.6890     7.8240 c          1 QIU       0.974200
     10 C15         -5.0990     2.4730     5.9480 ca         1 QIU      -0.063000
     11 C16         -3.3340     1.1950     2.8920 ca         1 QIU      -0.111000
     12 C2          -0.7320     0.0000     1.2690 c3         1 QIU       0.047000
     13 C3          -2.2370    -0.0000     0.9900 c3         1 QIU       0.025900
     14 C4          -2.9890    -0.0010     2.2950 ca         1 QIU      -0.107300
     15 C5          -3.3340    -1.1990     2.8930 ca         1 QIU      -0.126000
     16 C6          -4.0250    -1.2060     4.0920 ca         1 QIU      -0.097000
     17 C7          -4.3750    -0.0170     4.6960 ca         1 QIU      -0.106000
     18 C8          -4.0260     1.1930     4.1010 cp         1 QIU       0.027000
     19 C9          -4.4000     2.4760     4.7480 cp         1 QIU      -0.095000
     20 O1          -6.5300     4.8580     8.4030 o          1 QIU      -0.883800
     21 O2           1.9550    -0.0040     1.0490 o          1 QIU      -0.646100
     22 H3          -0.5000    -0.0260    -0.8660 hn         1 QIU       0.169500
     23 H1           3.1650    -0.0170    -1.1090 hc         1 QIU       0.018700
     24 H            1.8210    -0.8630    -1.8880 hc         1 QIU       0.018700
     25 H2           1.8550     0.9060    -1.8590 hc         1 QIU       0.018700
     26 H11         -3.4940     3.6900     3.2190 ha         1 QIU       0.089000
     27 H12         -4.1080     5.8200     4.2870 ha         1 QIU       0.085000
     28 H13         -5.3550     5.8300     6.4090 ha         1 QIU       0.129000
     29 H14         -5.3780     1.5350     6.4130 ha         1 QIU       0.127000
     30 H15         -3.2890     2.0570     2.2360 ha         1 QIU       0.112000
     31 H5          -0.4700     0.8850     1.8370 h1         1 QIU       0.033700
     32 H4          -0.4700    -0.8840     1.8370 h1         1 QIU       0.033700
     33 H7          -2.4990     0.8840     0.4220 hc         1 QIU       0.012200
     34 H6          -2.4980    -0.8850     0.4220 hc         1 QIU       0.012200
     35 H8          -3.0650    -2.1360     2.4200 ha         1 QIU       0.094000
     36 H9          -4.2920    -2.1480     4.5570 ha         1 QIU       0.096000
     37 H10         -4.9700    -0.0240     5.6020 ha         1 QIU       0.131000
@<TRIPOS>BOND
     1     1     4 1   
     2     1    12 1   
     3     1    22 1   
     4     2     4 1   
     5     2    23 1   
     6     2    24 1   
     7     2    25 1   
     8     3     9 1   
     9     4    21 2   
    10     5     6 ar  
    11     5    19 ar  
    12     5    26 1   
    13     6     7 ar  
    14     6    27 1   
    15     7     8 ar  
    16     7    28 1   
    17     8     9 1   
    18     8    10 ar  
    19     9    20 1   
    20    10    19 ar  
    21    10    29 1   
    22    11    14 ar  
    23    11    18 ar  
    24    11    30 1   
    25    12    13 1   
    26    12    31 1   
    27    12    32 1   
    28    13    14 1   
    29    13    33 1   
    30    13    34 1   
    31    14    15 ar  
    32    15    16 ar  
    33    15    35 1   
    34    16    17 ar  
    35    16    36 1   
    36    17    18 ar  
    37    17    37 1   
    38    18    19 1   
@<TRIPOS>SUBSTRUCTURE
     1 QIU         1 TEMP              0 ****  ****    0 ROOT
