@<TRIPOS>MOLECULE
QIV
   22    23     1     0     0
SMALL
bcc


@<TRIPOS>ATOM
      1 CAA          0.0000     0.0000     0.0000 c3         1 QIV      -0.061100
      2 OAB          2.1130     0.0000     1.0500 o          1 QIV      -0.592100
      3 CAD          8.3220     0.0020    -1.4670 ca         1 QIV      -0.139000
      4 CAE          7.3670     0.0020    -0.4760 ca         1 QIV      -0.017000
      5 CAF          6.6030     0.0090    -3.1460 ca         1 QIV      -0.103000
      6 NAG          4.2690     0.0020    -2.2860 nc         1 QIV      -0.520100
      7 NAH          2.1800     0.0010    -1.1680 ns         1 QIV       0.012600
      8 SAI          4.5730     0.0010     0.2110 ss         1 QIV      -0.142100
      9 CAJ          1.5070     0.0000     0.0000 c          1 QIV       0.545100
     10 CAK          7.9360     0.0090    -2.8040 ca         1 QIV       0.132100
     11 CAL          3.5490     0.0010    -1.2180 cd         1 QIV       0.315800
     12 CAM          5.6090     0.0020    -2.1440 ca         1 QIV       0.118400
     13 CAN          6.0130     0.0010    -0.8060 ca         1 QIV      -0.067100
     14 HAA         -0.3610     0.0180     1.0210 hc         1 QIV       0.028367
     15 HAAA        -0.3610     0.8760    -0.5260 hc         1 QIV       0.028367
     16 HAAB        -0.3610    -0.8930    -0.4950 hc         1 QIV       0.028367
     17 HOAC         9.0800    -0.8690    -4.0340 ho         1 QIV       0.404000
     18 HAD          9.3730     0.0430    -1.2070 ha         1 QIV       0.118000
     19 HAE          7.6690    -0.0030     0.5640 ha         1 QIV       0.111000
     20 HAF          6.3140     0.0150    -4.1900 ha         1 QIV       0.123000
     21 HNAH         1.6790    -0.0380    -2.0340 hn         1 QIV       0.175500
     22 OAC          8.8830     0.0170    -3.7800 oh         1 QIV      -0.500100
@<TRIPOS>BOND
     1     1     9 1   
     2     1    14 1   
     3     1    15 1   
     4     1    16 1   
     5     2     9 2   
     6     3     4 ar  
     7     3    10 ar  
     8     3    18 1   
     9     4    13 ar  
    10     4    19 1   
    11     5    10 ar  
    12     5    12 ar  
    13     5    20 1   
    14     6    11 2   
    15     6    12 1   
    16     7     9 1   
    17     7    11 1   
    18     7    21 1   
    19     8    11 1   
    20     8    13 1   
    21    10    22 1   
    22    12    13 ar  
    23    17    22 1   
@<TRIPOS>SUBSTRUCTURE
     1 QIV         1 TEMP              0 ****  ****    0 ROOT
