@<TRIPOS>MOLECULE
molecule
   22    23     1     0     0
SMALL
bcc


@<TRIPOS>ATOM
      1 CAA          0.0000     0.0000     0.0000 c3         1 QIV      -0.164100
      2 OAB          2.1130     0.0000     1.0500 o          1 QIV      -0.571100
      3 CAD          8.3220     0.0020    -1.4670 ca         1 QIV      -0.153000
      4 CAE          7.3670     0.0020    -0.4760 ca         1 QIV      -0.066000
      5 CAF          6.6030     0.0090    -3.1460 ca         1 QIV      -0.116000
      6 NAG          4.2690     0.0020    -2.2860 nc         1 QIV      -0.646100
      7 NAH          2.1800     0.0010    -1.1680 ns         1 QIV      -0.448400
      8 SAI          4.5730     0.0010     0.2110 ss         1 QIV      -0.024100
      9 CAJ          1.5070     0.0000     0.0000 c          1 QIV       0.659100
     10 CAK          7.9360     0.0090    -2.8040 ca         1 QIV       0.111100
     11 CAL          3.5490     0.0010    -1.2180 cd         1 QIV       0.472800
     12 CAM          5.6090     0.0020    -2.1440 ca         1 QIV       0.162400
     13 CAN          6.0130     0.0010    -0.8060 ca         1 QIV      -0.106100
     14 HAA         -0.3610     0.0180     1.0210 hc         1 QIV       0.070367
     15 HAAA        -0.3610     0.8760    -0.5260 hc         1 QIV       0.070367
     16 HAAB        -0.3610    -0.8930    -0.4950 hc         1 QIV       0.070367
     17 HOAC         9.0800    -0.8690    -4.0340 ho         1 QIV       0.420000
     18 HAD          9.3730     0.0430    -1.2070 ha         1 QIV       0.145000
     19 HAE          7.6690    -0.0030     0.5640 ha         1 QIV       0.138000
     20 HAF          6.3140     0.0150    -4.1900 ha         1 QIV       0.153000
     21 HNAH         1.6790    -0.0380    -2.0340 hn         1 QIV       0.342500
     22 OAC          8.8830     0.0170    -3.7800 oh         1 QIV      -0.520100
@<TRIPOS>BOND
     1     1     9 1
     2     1    14 1
     3     1    15 1
     4     1    16 1
     5     9     2 2
     6    10    22 1
     7    22    17 1
     8     4     3 ar
     9    10     3 ar
    10     3    18 1
    11    13     4 ar
    12     4    19 1
    13    12     5 ar
    14     5    10 ar
    15     5    20 1
    16    11     6 2
    17     6    12 1
    18     9     7 1
    19     7    11 1
    20     7    21 1
    21    11     8 1
    22     8    13 1
    23    12    13 ar
@<TRIPOS>SUBSTRUCTURE
     1 QIV         1 TEMP              0 ****  ****    0 ROOT
