@<TRIPOS>MOLECULE
molecule
   75    76     1     0     0
SMALL
bcc


@<TRIPOS>ATOM
      1 C10          0.0000     0.0000     0.0000 c          1 QIX       0.662100
      2 C13         -1.5930    -1.2700    -1.4140 c3         1 QIX      -0.145400
      3 C20         -0.4210     3.0010    -2.6120 ca         1 QIX      -0.138000
      4 C21          0.3340     4.1320    -2.6730 ca         1 QIX      -0.104000
      5 C22          0.7000     4.7880    -1.4850 ca         1 QIX      -0.033000
      6 C24          1.8130     6.5670    -0.3380 ca         1 QIX      -0.127000
      7 C26          0.6420     4.9160     0.9470 ca         1 QIX      -0.122000
      8 C28         -0.5020     3.0900    -0.2170 ca         1 QIX      -0.101000
      9 O54         10.0650     2.7640     3.2220 o          1 QIX      -0.387100
     10 C52          9.7340     2.3700     4.3210 c          1 QIX       0.470100
     11 N53         10.5910     2.4700     5.3570 nz         1 QIX      -0.684400
     12 C46          8.3680     1.7680     4.5270 c3         1 QIX       0.049000
     13 N45          7.6360     1.7720     3.2590 ns         1 QIX      -0.590900
     14 C43          6.3840     1.2790     3.2020 c          1 QIX       0.663100
     15 O44          5.8620     0.8310     4.2010 o          1 QIX      -0.595100
     16 C32          5.6290     1.2830     1.8970 c3         1 QIX       0.053000
     17 C29          3.4460     0.5980     1.0620 c          1 QIX       0.656100
     18 O30          3.7750     0.9920    -0.0370 o          1 QIX      -0.581100
     19 C08          2.0800    -0.0040     1.2690 c3         1 QIX       0.049700
     20 C07          2.2270    -1.4430     1.7670 c3         1 QIX      -0.105400
     21 C06          0.8460    -2.0120     2.0960 c3         1 QIX      -0.132400
     22 C05          0.9920    -3.4510     2.5950 c3         1 QIX       0.266800
     23 N04         -0.3300    -3.9970     2.9090 nu         1 QIX      -0.852200
     24 C02         -0.4500    -5.2830     3.3780 c2         1 QIX       0.688100
     25 N03         -1.6910    -5.7950     3.6740 nz         1 QIX      -0.807600
     26 N01          0.6140    -6.0180     3.5430 n2         1 QIX      -0.789100
     27 N09          1.3480     0.0000     0.0000 ns         1 QIX      -0.568900
     28 O11         -0.6070     0.0000     1.0500 o          1 QIX      -0.629100
     29 C12         -0.7540     0.0040    -1.3060 c3         1 QIX      -0.047700
     30 O17         -3.7000    -2.3860    -4.3490 oh         1 QIX      -0.346100
     31 C18         -1.6720     1.2270    -1.3600 c3         1 QIX      -0.185100
     32 C19         -0.8380     2.4820    -1.3880 ca         1 QIX      -0.072300
     33 C27          0.2760     4.2590    -0.2400 ca         1 QIX      -0.040000
     34 C25          1.3960     6.0470     0.8870 ca         1 QIX      -0.127000
     35 C23          1.4780     5.9580    -1.5080 ca         1 QIX      -0.109000
     36 H131        -0.9580    -2.1350    -1.2650 hc         1 QIX       0.067200
     37 H132        -2.3690    -1.2570    -0.6570 hc         1 QIX       0.067200
     38 H20         -0.7020     2.4980    -3.5290 ha         1 QIX       0.143000
     39 H21          0.6510     4.5240    -3.6310 ha         1 QIX       0.142000
     40 H24          2.4120     7.4690    -0.3580 ha         1 QIX       0.132000
     41 H26          0.3250     4.5240     1.9060 ha         1 QIX       0.127000
     42 H28         -0.8340     2.6740     0.7270 ha         1 QIX       0.144000
     43 H531        11.4500     2.8750     5.0410 hn         1 QIX       0.486467
     44 H532        10.7690     1.5600     5.7320 hn         1 QIX       0.486467
     45 H461         7.8240     2.3510     5.2600 h1         1 QIX       0.103200
     46 H462         8.4720     0.7500     4.8810 h1         1 QIX       0.103200
     47 HN45         8.0680     2.1390     2.4340 hn         1 QIX       0.352500
     48 H321         6.1740     0.7010     1.1630 h1         1 QIX       0.088200
     49 H322         5.5250     2.3020     1.5440 h1         1 QIX       0.088200
     50 HN31         4.0180     0.4040     3.0110 hn         1 QIX       0.339500
     51 H08          1.5360     0.5790     2.0020 h1         1 QIX       0.101700
     52 H071         2.8440    -1.4560     2.6580 hc         1 QIX       0.053200
     53 H072         2.6920    -2.0470     0.9970 hc         1 QIX       0.053200
     54 H061         0.2400    -2.0130     1.1970 hc         1 QIX       0.084700
     55 H062         0.5940    -1.1400     2.6870 hc         1 QIX       0.084700
     56 H051         1.6080    -3.4630     3.4860 h1         1 QIX       0.070700
     57 H052         1.4580    -4.0550     1.8260 h1         1 QIX       0.070700
     58 HN04        -1.1440    -3.4230     2.8100 hn         1 QIX       0.462800
     59 H031        -1.5960    -6.5420     4.3330 hn         1 QIX       0.468800
     60 H032        -2.1180    -6.1410     2.8370 hn         1 QIX       0.468800
     61 HN01         0.5280    -6.9550     3.8850 hn         1 QIX       0.440400
     62 HN09         1.8480    -0.0330    -0.8660 hn         1 QIX       0.346500
     63 H12         -0.0510     0.0440    -2.1280 hc         1 QIX       0.056700
     64 HN16        -3.3300    -3.0090    -2.3750 hn         1 QIX       0.312500
     65 HO17        -4.3490    -3.0700    -4.3610 ho         1 QIX       0.406000
     66 H181        -2.6490     1.1980    -1.8270 hc         1 QIX       0.120700
     67 H182        -1.0100     1.0020    -2.1880 hc         1 QIX       0.120700
     68 H25          1.6750     6.5520     1.8040 ha         1 QIX       0.126000
     69 H23          1.8100     6.3730    -2.4520 ha         1 QIX       0.139000
     70 N16         -3.1080    -2.3190    -3.0650 ns         1 QIX      -0.467400
     71 O15         -1.9400    -0.5170    -3.6240 o          1 QIX      -0.570100
     72 H533        10.2000     3.0700     6.0560 hn         1 QIX       0.486467
     73 H033        -2.2660    -5.0730     4.0610 hn         1 QIX       0.468800
     74 C14         -2.2260    -1.3410    -2.7800 c          1 QIX       0.668100
     75 N31          4.3020     0.6980     2.0980 ns         1 QIX      -0.582900
@<TRIPOS>BOND
     1     1    27 1
     2     1    29 1
     3     1    28 2
     4     2    74 1
     5     2    29 1
     6     2    36 1
     7     2    37 1
     8     3     4 ar
     9     3    32 ar
    10     3    38 1
    11     4     5 ar
    12     4    39 1
    13     5    35 ar
    14     5    33 ar
    15     6    35 ar
    16     6    34 ar
    17     6    40 1
    18     7    33 ar
    19     7    34 ar
    20     7    41 1
    21     8    32 ar
    22     8    33 ar
    23     8    42 1
    24     9    10 2
    25    10    11 1
    26    10    12 1
    27    11    43 1
    28    11    44 1
    29    12    13 1
    30    12    45 1
    31    12    46 1
    32    13    14 1
    33    13    47 1
    34    14    15 2
    35    14    16 1
    36    16    75 1
    37    16    48 1
    38    16    49 1
    39    75    17 1
    40    75    50 1
    41    17    18 2
    42    17    19 1
    43    19    20 1
    44    19    27 1
    45    19    51 1
    46    20    21 1
    47    20    52 1
    48    20    53 1
    49    21    22 1
    50    21    54 1
    51    21    55 1
    52    22    23 1
    53    22    56 1
    54    22    57 1
    55    23    24 1
    56    23    58 1
    57    24    25 1
    58    24    26 2
    59    25    59 1
    60    25    60 1
    61    26    61 1
    62    27    62 1
    63    29    31 1
    64    29    63 1
    65    74    71 2
    66    74    70 1
    67    70    30 1
    68    70    64 1
    69    30    65 1
    70    31    32 1
    71    31    66 1
    72    31    67 1
    73    34    68 1
    74    35    69 1
    75    72    11 1
    76    73    25 1
@<TRIPOS>SUBSTRUCTURE
     1 QIX         1 TEMP              0 ****  ****    0 ROOT
