@<TRIPOS>MOLECULE
QIX
   75    76     1     0     0
SMALL
bcc


@<TRIPOS>ATOM
      1 C10          0.0000     0.0000     0.0000 c          1 QIX       0.567100
      2 C13         -1.5930    -1.2700    -1.4140 c3         1 QIX      -0.092400
      3 C20         -0.4210     3.0010    -2.6120 ca         1 QIX      -0.118000
      4 C21          0.3340     4.1320    -2.6730 ca         1 QIX      -0.070000
      5 C22          0.7000     4.7880    -1.4850 ca         1 QIX      -0.036000
      6 C24          1.8130     6.5670    -0.3380 ca         1 QIX      -0.103000
      7 C26          0.6420     4.9160     0.9470 ca         1 QIX      -0.098000
      8 C28         -0.5020     3.0900    -0.2170 ca         1 QIX      -0.089000
      9 O54         10.0650     2.7640     3.2220 o          1 QIX      -0.388100
     10 C52          9.7340     2.3700     4.3210 c          1 QIX       0.304100
     11 N53         10.5910     2.4700     5.3570 nz         1 QIX       0.206600
     12 C46          8.3680     1.7680     4.5270 c3         1 QIX       0.000000
     13 N45          7.6360     1.7720     3.2590 ns         1 QIX      -0.205900
     14 C43          6.3840     1.2790     3.2020 c          1 QIX       0.583100
     15 O44          5.8620     0.8310     4.2010 o          1 QIX      -0.634100
     16 C32          5.6290     1.2830     1.8970 c3         1 QIX      -0.006000
     17 C29          3.4460     0.5980     1.0620 c          1 QIX       0.567100
     18 O30          3.7750     0.9920    -0.0370 o          1 QIX      -0.622100
     19 C08          2.0800    -0.0040     1.2690 c3         1 QIX      -0.049300
     20 C07          2.2270    -1.4430     1.7670 c3         1 QIX      -0.048400
     21 C06          0.8460    -2.0120     2.0960 c3         1 QIX      -0.098400
     22 C05          0.9920    -3.4510     2.5950 c3         1 QIX       0.193800
     23 N04         -0.3300    -3.9970     2.9090 nu         1 QIX      -0.482200
     24 C02         -0.4500    -5.2830     3.3780 c2         1 QIX       0.244100
     25 N03         -1.6910    -5.7950     3.6740 nz         1 QIX       0.197400
     26 N01          0.6140    -6.0180     3.5430 n2         1 QIX      -0.629100
     27 N09          1.3480     0.0000     0.0000 ns         1 QIX      -0.177900
     28 O11         -0.6070     0.0000     1.0500 o          1 QIX      -0.669100
     29 C12         -0.7540     0.0040    -1.3060 c3         1 QIX      -0.003700
     30 O17         -3.7000    -2.3860    -4.3490 oh         1 QIX      -0.424100
     31 C18         -1.6720     1.2270    -1.3600 c3         1 QIX      -0.161100
     32 C19         -0.8380     2.4820    -1.3880 ca         1 QIX      -0.062300
     33 C27          0.2760     4.2590    -0.2400 ca         1 QIX      -0.037000
     34 C25          1.3960     6.0470     0.8870 ca         1 QIX      -0.101000
     35 C23          1.4780     5.9580    -1.5080 ca         1 QIX      -0.077000
     36 H131        -2.3690    -1.2570    -0.6570 hc         1 QIX       0.030200
     37 H132        -0.9580    -2.1350    -1.2650 hc         1 QIX       0.030200
     38 H20         -0.7020     2.4980    -3.5290 ha         1 QIX       0.120000
     39 H21          0.6510     4.5240    -3.6310 ha         1 QIX       0.113000
     40 H24          2.4120     7.4690    -0.3580 ha         1 QIX       0.104000
     41 H26          0.3250     4.5240     1.9060 ha         1 QIX       0.102000
     42 H28         -0.8340     2.6740     0.7270 ha         1 QIX       0.122000
     43 H531        11.4720     2.8130     5.0290 hn         1 QIX       0.253133
     44 H532        10.2190     3.1030     6.0370 hn         1 QIX       0.253133
     45 H461         7.8240     2.3510     5.2600 h1         1 QIX       0.064700
     46 H462         8.4720     0.7500     4.8810 h1         1 QIX       0.064700
     47 HN45         8.0680     2.1380     2.4340 hn         1 QIX       0.214500
     48 H321         6.1740     0.7010     1.1630 h1         1 QIX       0.051200
     49 H322         5.5250     2.3020     1.5440 h1         1 QIX       0.051200
     50 HN31         4.0170     0.4080     3.0120 hn         1 QIX       0.203500
     51 H08          1.5360     0.5790     2.0020 h1         1 QIX       0.074700
     52 H071         2.6920    -2.0470     0.9970 hc         1 QIX       0.022700
     53 H072         2.8440    -1.4560     2.6580 hc         1 QIX       0.022700
     54 H061         0.2400    -2.0130     1.1970 hc         1 QIX       0.069700
     55 H062         0.5940    -1.1400     2.6870 hc         1 QIX       0.069700
     56 H051         1.4580    -4.0550     1.8260 h1         1 QIX       0.026200
     57 H052         1.6080    -3.4630     3.4860 h1         1 QIX       0.026200
     58 HN04        -1.1430    -3.4200     2.8170 hn         1 QIX       0.315800
     59 H031        -2.1930    -5.9670     2.8250 hn         1 QIX       0.224467
     60 H032        -1.5870    -6.6530     4.1790 hn         1 QIX       0.224467
     61 HN01         1.5180    -5.6470     3.3290 hn         1 QIX       0.381400
     62 HN09         1.8480    -0.0270    -0.8660 hn         1 QIX       0.209500
     63 H12         -0.0510     0.0440    -2.1280 hc         1 QIX       0.034700
     64 HN16        -3.3630    -2.9830    -2.3610 hn         1 QIX       0.145500
     65 HO17        -4.2360    -3.1600    -4.4080 ho         1 QIX       0.399000
     66 H181        -2.6490     1.1980    -1.8270 hc         1 QIX       0.095700
     67 H182        -1.0100     1.0020    -2.1880 hc         1 QIX       0.095700
     68 H25          1.6750     6.5520     1.8040 ha         1 QIX       0.098000
     69 H23          1.8100     6.3730    -2.4520 ha         1 QIX       0.111000
     70 N16         -3.1080    -2.3190    -3.0650 ns         1 QIX      -0.042400
     71 O15         -1.9400    -0.5170    -3.6240 o          1 QIX      -0.615100
     72 H533        10.6990     1.5740     5.7890 hn         1 QIX       0.253133
     73 H033        -2.1910    -5.1470     4.2500 hn         1 QIX       0.224467
     74 C14         -2.2260    -1.3410    -2.7800 c          1 QIX       0.563100
     75 N31          4.3020     0.6980     2.0980 ns         1 QIX      -0.191900
@<TRIPOS>BOND
     1     1    27 1   
     2     1    28 2   
     3     1    29 1   
     4     2    29 1   
     5     2    36 1   
     6     2    37 1   
     7     2    74 1   
     8     3     4 ar  
     9     3    32 ar  
    10     3    38 1   
    11     4     5 ar  
    12     4    39 1   
    13     5    33 ar  
    14     5    35 ar  
    15     6    34 ar  
    16     6    35 ar  
    17     6    40 1   
    18     7    33 ar  
    19     7    34 ar  
    20     7    41 1   
    21     8    32 ar  
    22     8    33 ar  
    23     8    42 1   
    24     9    10 2   
    25    10    11 1   
    26    10    12 1   
    27    11    43 1   
    28    11    44 1   
    29    11    72 1   
    30    12    13 1   
    31    12    45 1   
    32    12    46 1   
    33    13    14 1   
    34    13    47 1   
    35    14    15 2   
    36    14    16 1   
    37    16    48 1   
    38    16    49 1   
    39    16    75 1   
    40    17    18 2   
    41    17    19 1   
    42    17    75 1   
    43    19    20 1   
    44    19    27 1   
    45    19    51 1   
    46    20    21 1   
    47    20    52 1   
    48    20    53 1   
    49    21    22 1   
    50    21    54 1   
    51    21    55 1   
    52    22    23 1   
    53    22    56 1   
    54    22    57 1   
    55    23    24 1   
    56    23    58 1   
    57    24    25 1   
    58    24    26 2   
    59    25    59 1   
    60    25    60 1   
    61    25    73 1   
    62    26    61 1   
    63    27    62 1   
    64    29    31 1   
    65    29    63 1   
    66    30    65 1   
    67    30    70 1   
    68    31    32 1   
    69    31    66 1   
    70    31    67 1   
    71    34    68 1   
    72    35    69 1   
    73    50    75 1   
    74    64    70 1   
    75    70    74 1   
    76    71    74 2   
@<TRIPOS>SUBSTRUCTURE
     1 QIX         1 TEMP              0 ****  ****    0 ROOT
