@<TRIPOS>MOLECULE
QJ2
   45    46     1     0     0
SMALL
bcc


@<TRIPOS>ATOM
      1 N22          0.0000     0.0000     0.0000 nv         1 QJ2      -0.571500
      2 C22          1.3900     0.0000     0.0000 ca         1 QJ2       0.511200
      3 C23          2.0800     0.0000     1.2090 ca         1 QJ2      -0.292300
      4 C24          3.4630    -0.0010     1.1940 ca         1 QJ2      -0.017800
      5 C27          4.2470    -0.0020     2.4800 c3         1 QJ2       0.060700
      6 C25          4.1130    -0.0010    -0.0340 ca         1 QJ2      -0.271800
      7 N21          2.0460    -0.0050    -1.1510 nb         1 QJ2      -0.635500
      8 C26          3.3650    -0.0010    -1.1940 ca         1 QJ2       0.419600
      9 C12          4.0640    -0.0000    -2.5290 c3         1 QJ2      -0.071700
     10 C11          3.5680    -1.1820    -3.3650 c3         1 QJ2      -0.026900
     11 C10          4.2780    -1.1820    -4.7210 c3         1 QJ2      -0.030400
     12 C09          3.7810    -2.3630    -5.5570 c3         1 QJ2      -0.026900
     13 C08          4.4910    -2.3640    -6.9120 c3         1 QJ2      -0.071700
     14 C06          4.0010    -3.5270    -7.7350 ca         1 QJ2       0.419600
     15 N01          4.0720    -4.7500    -7.2430 nb         1 QJ2      -0.635500
     16 C02          3.6540    -5.8000    -7.9300 ca         1 QJ2       0.511200
     17 N02          3.7470    -7.0700    -7.3720 nv         1 QJ2      -0.571500
     18 C03          3.1210    -5.6450    -9.2060 ca         1 QJ2      -0.292300
     19 C04          3.0340    -4.3770    -9.7490 ca         1 QJ2      -0.017800
     20 C05          3.4790    -3.3000    -8.9920 ca         1 QJ2      -0.271800
     21 C07          2.4640    -4.1660   -11.1280 c3         1 QJ2       0.060700
     22 H1          -0.5000    -0.7040     0.5060 hn         1 QJ2       0.270550
     23 H2          -0.5000     0.6940    -0.5190 hn         1 QJ2       0.270550
     24 H3           1.5480     0.1760     2.1360 ha         1 QJ2       0.119000
     25 H4           3.6310    -0.3970     3.2790 hc         1 QJ2       0.009533
     26 H5           5.1290    -0.6210     2.3650 hc         1 QJ2       0.009533
     27 H6           4.5460     1.0110     2.7210 hc         1 QJ2       0.009533
     28 H7           5.1950     0.0000    -0.0810 ha         1 QJ2       0.119500
     29 H8           3.8500     0.9250    -3.0490 hc         1 QJ2       0.020950
     30 H9           5.1330    -0.0900    -2.3770 hc         1 QJ2       0.020950
     31 H10          3.7830    -2.1080    -2.8450 hc         1 QJ2       0.024450
     32 H11          2.4990    -1.0930    -3.5170 hc         1 QJ2       0.024450
     33 H12          4.0630    -0.2560    -5.2410 hc         1 QJ2       0.011700
     34 H13          5.3460    -1.2710    -4.5690 hc         1 QJ2       0.011700
     35 H14          2.7120    -2.2740    -5.7090 hc         1 QJ2       0.024450
     36 H15          3.9950    -3.2890    -5.0360 hc         1 QJ2       0.024450
     37 H16          4.2770    -1.4380    -7.4320 hc         1 QJ2       0.020950
     38 H17          5.5590    -2.4540    -6.7600 hc         1 QJ2       0.020950
     39 H18          3.4000    -7.8640    -7.8730 hn         1 QJ2       0.270550
     40 H19          4.1680    -7.1920    -6.4720 hn         1 QJ2       0.270550
     41 H20          2.7820    -6.5070    -9.7680 ha         1 QJ2       0.119000
     42 H21          3.4250    -2.2930    -9.3890 ha         1 QJ2       0.119500
     43 H22          2.6840    -5.0280   -11.7460 hc         1 QJ2       0.009533
     44 H23          2.9070    -3.2820   -11.5710 hc         1 QJ2       0.009533
     45 H24          1.3910    -4.0350   -11.0590 hc         1 QJ2       0.009533
@<TRIPOS>BOND
     1     1     2 1   
     2     1    22 1   
     3     1    23 1   
     4     2     3 ar  
     5     2     7 ar  
     6     3     4 ar  
     7     3    24 1   
     8     4     5 1   
     9     4     6 ar  
    10     5    25 1   
    11     5    26 1   
    12     5    27 1   
    13     6     8 ar  
    14     6    28 1   
    15     7     8 ar  
    16     8     9 1   
    17     9    10 1   
    18     9    29 1   
    19     9    30 1   
    20    10    11 1   
    21    10    31 1   
    22    10    32 1   
    23    11    12 1   
    24    11    33 1   
    25    11    34 1   
    26    12    13 1   
    27    12    35 1   
    28    12    36 1   
    29    13    14 1   
    30    13    37 1   
    31    13    38 1   
    32    14    15 ar  
    33    14    20 ar  
    34    15    16 ar  
    35    16    17 1   
    36    16    18 ar  
    37    17    39 1   
    38    17    40 1   
    39    18    19 ar  
    40    18    41 1   
    41    19    20 ar  
    42    19    21 1   
    43    20    42 1   
    44    21    43 1   
    45    21    44 1   
    46    21    45 1   
@<TRIPOS>SUBSTRUCTURE
     1 QJ2         1 TEMP              0 ****  ****    0 ROOT
