@<TRIPOS>MOLECULE
molecule
   51    52     1     0     0
SMALL
bcc


@<TRIPOS>ATOM
      1 N22          0.0000     0.0000     0.0000 nv         1 QJ4      -1.034000
      2 C22          1.3900     0.0000     0.0000 ca         1 QJ4       0.702700
      3 C23          2.0800     0.0000     1.2080 ca         1 QJ4      -0.311800
      4 C24          3.4620    -0.0010     1.1940 ca         1 QJ4      -0.015300
      5 C27          4.2470    -0.0000     2.4810 c3         1 QJ4      -0.049800
      6 C25          4.1130    -0.0010    -0.0340 ca         1 QJ4      -0.298300
      7 N21          2.0450    -0.0060    -1.1500 nb         1 QJ4      -0.754500
      8 C26          3.3650    -0.0010    -1.1950 ca         1 QJ4       0.470100
      9 C14          4.0640    -0.0080    -2.5290 c3         1 QJ4      -0.125700
     10 C13          3.5720    -1.1970    -3.3560 c3         1 QJ4      -0.075900
     11 C12          4.2820    -1.2030    -4.7120 c3         1 QJ4      -0.084400
     12 C11          3.7910    -2.3930    -5.5390 c3         1 QJ4      -0.079400
     13 C10          4.5010    -2.4000    -6.8950 c3         1 QJ4      -0.084400
     14 C09          4.0090    -3.5890    -7.7220 c3         1 QJ4      -0.075900
     15 C08          4.7200    -3.5960    -9.0770 c3         1 QJ4      -0.125700
     16 C06          4.2360    -4.7670    -9.8920 ca         1 QJ4       0.470100
     17 N01          4.3120    -5.9860    -9.3900 nb         1 QJ4      -0.754500
     18 C02          3.8980    -7.0440   -10.0710 ca         1 QJ4       0.702700
     19 N02          3.9970    -8.3090    -9.5030 nv         1 QJ4      -1.034000
     20 C03          3.3650    -6.9010   -11.3470 ca         1 QJ4      -0.311800
     21 C04          3.2730    -5.6360   -11.9000 ca         1 QJ4      -0.015300
     22 C05          3.7130    -4.5520   -11.1510 ca         1 QJ4      -0.298300
     23 C07          2.7010    -5.4380   -13.2800 c3         1 QJ4      -0.049800
     24 H1          -0.5000    -0.6640     0.5570 hn         1 QJ4       0.437050
     25 H2          -0.5000     0.6830    -0.5340 hn         1 QJ4       0.437050
     26 H3           1.5470    -0.1700     2.1360 ha         1 QJ4       0.134000
     27 H4           3.6060     0.3140     3.2950 hc         1 QJ4       0.046533
     28 H5           4.6170    -0.9990     2.6780 hc         1 QJ4       0.046533
     29 H6           5.0820     0.6840     2.3940 hc         1 QJ4       0.046533
     30 H7           5.1950     0.0010    -0.0800 ha         1 QJ4       0.136500
     31 H8           3.8450     0.9140    -3.0560 hc         1 QJ4       0.052950
     32 H9           5.1330    -0.0910    -2.3760 hc         1 QJ4       0.052950
     33 H10          2.5030    -1.1140    -3.5090 hc         1 QJ4       0.052950
     34 H11          3.7910    -2.1180    -2.8300 hc         1 QJ4       0.052950
     35 H12          4.0630    -0.2820    -5.2380 hc         1 QJ4       0.038950
     36 H13          5.3520    -1.2860    -4.5590 hc         1 QJ4       0.038950
     37 H14          4.0090    -3.3140    -5.0120 hc         1 QJ4       0.043200
     38 H15          2.7220    -2.3090    -5.6920 hc         1 QJ4       0.043200
     39 H16          5.5710    -2.4850    -6.7420 hc         1 QJ4       0.038950
     40 H17          4.2840    -1.4790    -7.4210 hc         1 QJ4       0.038950
     41 H18          4.2270    -4.5110    -7.1950 hc         1 QJ4       0.052950
     42 H19          2.9400    -3.5050    -7.8750 hc         1 QJ4       0.052950
     43 H20          5.7890    -3.6800    -8.9240 hc         1 QJ4       0.052950
     44 H21          4.5020    -2.6750    -9.6040 hc         1 QJ4       0.052950
     45 H22          3.6250    -9.1040    -9.9840 hn         1 QJ4       0.437050
     46 H23          4.4410    -8.4250    -8.6140 hn         1 QJ4       0.437050
     47 H24          3.0290    -7.7680   -11.9030 ha         1 QJ4       0.134000
     48 H25          3.6550    -3.5480   -11.5540 ha         1 QJ4       0.136500
     49 H26          3.1290    -4.5470   -13.7240 hc         1 QJ4       0.046533
     50 H27          1.6260    -5.3270   -13.2140 hc         1 QJ4       0.046533
     51 H28          2.9380    -6.2970   -13.8960 hc         1 QJ4       0.046533
@<TRIPOS>BOND
     1    23    21 1
     2    21    20 ar
     3    21    22 ar
     4    20    18 ar
     5    22    16 ar
     6    18    19 1
     7    18    17 ar
     8    16    17 ar
     9    16    15 1
    10    13    14 1
    11    13    12 1
    12    14    15 1
    13    12    11 1
    14    11    10 1
    15    10     9 1
    16     9     8 1
    17     7     2 ar
    18     7     8 ar
    19     1     2 1
    20     2     3 ar
    21     8     6 ar
    22     6     4 ar
    23     3     4 ar
    24     4     5 1
    25     1    24 1
    26     1    25 1
    27     3    26 1
    28     5    27 1
    29     5    28 1
    30     5    29 1
    31     6    30 1
    32     9    31 1
    33     9    32 1
    34    10    33 1
    35    10    34 1
    36    11    35 1
    37    11    36 1
    38    12    37 1
    39    12    38 1
    40    13    39 1
    41    13    40 1
    42    14    41 1
    43    14    42 1
    44    15    43 1
    45    15    44 1
    46    19    45 1
    47    19    46 1
    48    20    47 1
    49    22    48 1
    50    23    49 1
    51    23    50 1
    52    23    51 1
@<TRIPOS>SUBSTRUCTURE
     1 QJ4         1 TEMP              0 ****  ****    0 ROOT
