@<TRIPOS>MOLECULE
QJ7
   50    52     1     0     0
SMALL
bcc


@<TRIPOS>ATOM
      1 F23          0.0000     0.0000     0.0000 f          1 QJ7      -0.129900
      2 C23          1.3510     0.0000     0.0000 ca         1 QJ7       0.106900
      3 C24          2.0430     0.0000     1.2000 ca         1 QJ7      -0.136000
      4 C25          3.4250    -0.0010     1.1990 ca         1 QJ7      -0.071000
      5 C26          4.1170    -0.0010     0.0020 ca         1 QJ7      -0.109000
      6 C22          2.0440    -0.0060    -1.1980 ca         1 QJ7      -0.133000
      7 C21          3.4260    -0.0010    -1.1960 ca         1 QJ7      -0.064300
      8 C20          4.1810    -0.0020    -2.5000 c3         1 QJ7       0.027900
      9 C19          4.4370    -1.4440    -2.9420 c3         1 QJ7       0.144800
     10 N18          5.1720    -1.4440    -4.2130 n7         1 QJ7      -0.583200
     11 C17          5.4360    -2.8150    -4.6680 c3         1 QJ7       0.208100
     12 C15          6.1910    -2.7750    -5.9720 ca         1 QJ7      -0.175600
     13 C14          5.5070    -2.7510    -7.1770 ca         1 QJ7      -0.112000
     14 C16          7.5740    -2.7570    -5.9800 ca         1 QJ7       0.380200
     15 N11          8.2440    -2.7210    -7.1150 nb         1 QJ7      -0.541000
     16 C12          7.6310    -2.7020    -8.2830 ca         1 QJ7       0.300200
     17 C13          6.2460    -2.7150    -8.3560 ca         1 QJ7       0.035800
     18 O09          5.6190    -2.6900    -9.5620 os         1 QJ7      -0.304900
     19 C08          6.4500    -2.6530   -10.7240 c3         1 QJ7       0.159100
     20 C06          5.5860    -2.6300   -11.9580 ca         1 QJ7       0.367600
     21 N01          6.1530    -2.5950   -13.1500 nb         1 QJ7      -0.588000
     22 C02          5.4330    -2.5750   -14.2610 ca         1 QJ7       0.501200
     23 N02          6.0710    -2.5380   -15.4950 nv         1 QJ7      -0.658500
     24 C03          4.0420    -2.5910   -14.2040 ca         1 QJ7      -0.224300
     25 C04          3.4190    -2.6280   -12.9690 ca         1 QJ7      -0.053300
     26 C05          4.2120    -2.6530   -11.8280 ca         1 QJ7      -0.209300
     27 C07          1.9170    -2.6470   -12.8650 c3         1 QJ7       0.062200
     28 H1           1.5020     0.0000     2.1380 ha         1 QJ7       0.119000
     29 H2           3.9670    -0.0010     2.1370 ha         1 QJ7       0.107000
     30 H3           5.2000     0.0010     0.0020 ha         1 QJ7       0.112000
     31 H4           1.5040    -0.0060    -2.1370 ha         1 QJ7       0.121000
     32 H5           3.5970     0.5090    -3.2560 hc         1 QJ7       0.026200
     33 H6           5.1280     0.5090    -2.3690 hc         1 QJ7       0.026200
     34 H7           3.4910    -1.9550    -3.0720 h1         1 QJ7       0.010200
     35 H8           5.0220    -1.9550    -2.1870 h1         1 QJ7       0.010200
     36 H9           4.6390    -0.9590    -4.9070 hn         1 QJ7       0.255800
     37 H11          6.0280    -3.3350    -3.9240 h1         1 QJ7       0.012200
     38 H12          4.4970    -3.3360    -4.8110 h1         1 QJ7       0.012200
     39 H13          4.4240    -2.7610    -7.2010 ha         1 QJ7       0.120000
     40 H14          8.1140    -2.7720    -5.0410 h4         1 QJ7      -0.011900
     41 H15          8.2160    -2.6730    -9.1940 h4         1 QJ7      -0.002900
     42 H16          7.0840    -3.5310   -10.7430 h1         1 QJ7       0.019700
     43 H17          7.0660    -1.7620   -10.6990 h1         1 QJ7       0.019700
     44 H18          6.3210    -3.3910   -15.9540 hn         1 QJ7       0.276800
     45 H19          6.3040    -1.6580   -15.9110 hn         1 QJ7       0.276800
     46 H20          3.4560    -2.5720   -15.1140 ha         1 QJ7       0.121000
     47 H21          3.7550    -2.6830   -10.8460 ha         1 QJ7       0.132000
     48 H22          1.4860    -2.6340   -13.8580 hc         1 QJ7       0.011033
     49 H23          1.6020    -3.5450   -12.3460 hc         1 QJ7       0.011033
     50 H24          1.5820    -1.7760   -12.3150 hc         1 QJ7       0.011033
@<TRIPOS>BOND
     1     1     2 1   
     2     2     3 ar  
     3     2     6 ar  
     4     3     4 ar  
     5     3    28 1   
     6     4     5 ar  
     7     4    29 1   
     8     5     7 ar  
     9     5    30 1   
    10     6     7 ar  
    11     6    31 1   
    12     7     8 1   
    13     8     9 1   
    14     8    32 1   
    15     8    33 1   
    16     9    10 1   
    17     9    34 1   
    18     9    35 1   
    19    10    11 1   
    20    10    36 1   
    21    11    12 1   
    22    11    37 1   
    23    11    38 1   
    24    12    13 ar  
    25    12    14 ar  
    26    13    17 ar  
    27    13    39 1   
    28    14    15 ar  
    29    14    40 1   
    30    15    16 ar  
    31    16    17 ar  
    32    16    41 1   
    33    17    18 1   
    34    18    19 1   
    35    19    20 1   
    36    19    42 1   
    37    19    43 1   
    38    20    21 ar  
    39    20    26 ar  
    40    21    22 ar  
    41    22    23 1   
    42    22    24 ar  
    43    23    44 1   
    44    23    45 1   
    45    24    25 ar  
    46    24    46 1   
    47    25    26 ar  
    48    25    27 1   
    49    26    47 1   
    50    27    48 1   
    51    27    49 1   
    52    27    50 1   
@<TRIPOS>SUBSTRUCTURE
     1 QJ7         1 TEMP              0 ****  ****    0 ROOT
