@<TRIPOS>MOLECULE
QJ8
   53    55     1     0     0
SMALL
bcc


@<TRIPOS>ATOM
      1 N22          0.0000     0.0000     0.0000 nv         1 QJ8      -0.536500
      2 C22          1.3900     0.0000     0.0000 ca         1 QJ8       0.514200
      3 C23          2.0790     0.0000     1.2090 ca         1 QJ8      -0.311300
      4 C24          3.4620     0.0000     1.1940 ca         1 QJ8      -0.006300
      5 C27          4.2460     0.0010     2.4810 c3         1 QJ8       0.060200
      6 C25          4.1120     0.0010    -0.0330 ca         1 QJ8      -0.274300
      7 N21          2.0460    -0.0060    -1.1500 nb         1 QJ8      -0.658000
      8 C26          3.3650     0.0000    -1.1940 ca         1 QJ8       0.416600
      9 C12          4.0650    -0.0000    -2.5290 c3         1 QJ8       0.165100
     10 O11          5.4790    -0.0000    -2.3250 os         1 QJ8      -0.410600
     11 C4'          6.2410    -0.0010    -3.5350 c3         1 QJ8       0.177100
     12 C5'          6.5570     1.4450    -3.9700 c3         1 QJ8       0.107800
     13 N1'          7.9330     1.3780    -4.5250 n7         1 QJ8      -0.573200
     14 C3'          7.6160    -0.6600    -3.3020 c3         1 QJ8      -0.029400
     15 C2'          8.6480     0.4450    -3.6150 c3         1 QJ8       0.109500
     16 C10          9.8710    -0.1510    -4.3160 c3         1 QJ8       0.219400
     17 O09         10.8610     0.8650    -4.4920 os         1 QJ8      -0.421600
     18 C08         12.0500     0.4100    -5.1400 c3         1 QJ8       0.170100
     19 C06         13.0190     1.5570    -5.2730 ca         1 QJ8       0.418600
     20 N01         14.1900     1.3570    -5.8470 nb         1 QJ8      -0.657000
     21 C02         15.0720     2.3360    -5.9850 ca         1 QJ8       0.514200
     22 N02         16.2940     2.0800    -6.5960 nv         1 QJ8      -0.537500
     23 C03         14.7850     3.6160    -5.5240 ca         1 QJ8      -0.310300
     24 C04         13.5660     3.8570    -4.9180 ca         1 QJ8      -0.007300
     25 C05         12.6680     2.8050    -4.7970 ca         1 QJ8      -0.273300
     26 C07         13.2170     5.2300    -4.4050 c3         1 QJ8       0.061200
     27 H1          -0.5000    -0.0170     0.8670 hn         1 QJ8       0.269300
     28 H2          -0.5000    -0.0080    -0.8670 hn         1 QJ8       0.269300
     29 H3           1.5470     0.1800     2.1350 ha         1 QJ8       0.118000
     30 H4           5.0590    -0.7110     2.4090 hc         1 QJ8       0.009700
     31 H5           3.5940    -0.2770     3.3010 hc         1 QJ8       0.009700
     32 H6           4.6480     0.9910     2.6590 hc         1 QJ8       0.009700
     33 H7           5.1950     0.0040    -0.0790 ha         1 QJ8       0.136000
     34 H8           3.7800     0.8840    -3.0860 h1         1 QJ8       0.007200
     35 H9           3.7800    -0.8850    -3.0850 h1         1 QJ8       0.007200
     36 H10          5.7060    -0.5190    -4.3220 h1         1 QJ8       0.019700
     37 H11          6.5290     2.1100    -3.1140 h1         1 QJ8       0.019700
     38 H12          5.8590     1.7700    -4.7320 h1         1 QJ8       0.019700
     39 H13          8.3580     2.2830    -4.4760 hn         1 QJ8       0.262800
     40 H15          7.7480    -1.4990    -3.9750 hc         1 QJ8       0.030200
     41 H16          7.7090    -0.9790    -2.2710 hc         1 QJ8       0.030200
     42 H17          8.9380     0.9560    -2.7050 h1         1 QJ8       0.022700
     43 H18          9.5790    -0.5420    -5.2830 h1         1 QJ8      -0.000800
     44 H19         10.2790    -0.9520    -3.7110 h1         1 QJ8      -0.000800
     45 H20         12.5030    -0.3780    -4.5520 h1         1 QJ8       0.005700
     46 H21         11.8030     0.0310    -6.1240 h1         1 QJ8       0.005700
     47 H22         16.9600     2.8180    -6.7100 hn         1 QJ8       0.269300
     48 H23         16.5060     1.1590    -6.9260 hn         1 QJ8       0.269300
     49 H24         15.5090     4.4140    -5.6360 ha         1 QJ8       0.118000
     50 H25         11.7040     2.9600    -4.3280 ha         1 QJ8       0.135000
     51 H26         12.3770     5.6230    -4.9650 hc         1 QJ8       0.009367
     52 H27         14.0700     5.8880    -4.5250 hc         1 QJ8       0.009367
     53 H28         12.9550     5.1680    -3.3560 hc         1 QJ8       0.009367
@<TRIPOS>BOND
     1     1     2 1   
     2     1    27 1   
     3     1    28 1   
     4     2     3 ar  
     5     2     7 ar  
     6     3     4 ar  
     7     3    29 1   
     8     4     5 1   
     9     4     6 ar  
    10     5    30 1   
    11     5    31 1   
    12     5    32 1   
    13     6     8 ar  
    14     6    33 1   
    15     7     8 ar  
    16     8     9 1   
    17     9    10 1   
    18     9    34 1   
    19     9    35 1   
    20    10    11 1   
    21    11    12 1   
    22    11    14 1   
    23    11    36 1   
    24    12    13 1   
    25    12    37 1   
    26    12    38 1   
    27    13    15 1   
    28    13    39 1   
    29    14    15 1   
    30    14    40 1   
    31    14    41 1   
    32    15    16 1   
    33    15    42 1   
    34    16    17 1   
    35    16    43 1   
    36    16    44 1   
    37    17    18 1   
    38    18    19 1   
    39    18    45 1   
    40    18    46 1   
    41    19    20 ar  
    42    19    25 ar  
    43    20    21 ar  
    44    21    22 1   
    45    21    23 ar  
    46    22    47 1   
    47    22    48 1   
    48    23    24 ar  
    49    23    49 1   
    50    24    25 ar  
    51    24    26 1   
    52    25    50 1   
    53    26    51 1   
    54    26    52 1   
    55    26    53 1   
@<TRIPOS>SUBSTRUCTURE
     1 QJ8         1 TEMP              0 ****  ****    0 ROOT
