@<TRIPOS>MOLECULE
QJ9
   58    58     1     0     0
SMALL
bcc


@<TRIPOS>ATOM
      1 N1         -0.5690    0.6480    0.9080 n2        1 QJ9     -0.248000
      2 N3          1.5970    1.5220    0.3530 n3        1 QJ9     -0.318000
      3 C4          0.6370    1.1450    1.3020 c2        1 QJ9      0.156000
      4 C5         -2.7850   -0.1180    1.4400 c2        1 QJ9     -0.003000
      5 C6         -3.3020   -0.4160    0.1880 c2        1 QJ9     -0.145000
      6 C7         -4.8710   -0.8730    1.7620 c2        1 QJ9      0.071000
      7 C8         -4.6410   -0.9010    0.3930 c2        1 QJ9     -0.175000
      8 C10        -6.6780   -2.5210   -2.0960 c1        1 QJ9     -0.219500
      9 C13         4.4780    1.1800    0.5570 c1        1 QJ9     -0.061000
     10 C15         3.8080    0.7040   -1.7550 c3        1 QJ9     -0.145000
     11 C17         1.4040    1.1630   -1.0320 c3        1 QJ9     -0.028000
     12 C20         8.1050    1.0340   -2.5050 c2        1 QJ9      0.018000
     13 C21         9.2390    1.5130   -3.3330 c3        1 QJ9     -0.049000
     14 C22         9.0650    1.1570   -4.7620 c2        1 QJ9     -0.515000
     15 C24         6.8330    3.1960   -2.0120 c1        1 QJ9     -0.074000
     16 C26        10.4460   -3.1970   -0.2430 c3        1 QJ9     -0.274000
     17 N5          7.8790   -0.3470   -2.2060 n         1 QJ9     -0.170000
     18 C18         6.6480   -0.3880   -1.3790 c2        1 QJ9      0.374000
     19 O2          6.1390   -1.4120   -0.9240 o         1 QJ9     -0.259000
     20 C23         8.9750    1.9850   -5.7810 c1        1 QJ9      0.252000
     21 C19         7.0980    1.8180   -1.9250 c2        1 QJ9     -0.120000
     22 N4          6.2470    0.9550   -1.1520 n         1 QJ9     -0.257000
     23 C14         4.8750    1.3390   -0.8290 c3        1 QJ9     -0.055000
     24 C16         2.5780    1.5700   -1.9240 c3        1 QJ9     -0.167000
     25 N2          0.9270    1.3650    2.6800 n3        1 QJ9     -0.176000
     26 C1          0.0220    1.1220    3.6460 c1        1 QJ9     -0.097000
     27 C2         -1.2530    0.6230    3.2440 c2        1 QJ9     -0.277000
     28 C3         -1.5040    0.4010    1.8930 c2        1 QJ9      0.105000
     29 C9         -7.2610   -1.6400   -2.6570 c1        1 QJ9     -0.219500
     30 C11        -6.9240   -1.5220    3.1990 c1        1 QJ9     -0.158000
     31 C12        -5.9700   -1.2200    2.5430 c1        1 QJ9     -0.111000
     32 O1         -3.7350   -0.3910    2.4350 os        1 QJ9     -0.080000
     33 H6         -2.7960   -0.3050   -0.7680 ha        1 QJ9      0.174000
     34 H10        -7.7770   -0.8570   -3.1520 ha        1 QJ9      0.220000
     35 H13         2.5660    1.5140    0.6610 hn        1 QJ9      0.263000
     36 H13A        5.1940    0.8390    1.3140 ha        1 QJ9      0.091000
     37 H15         3.5320   -0.3060   -1.3510 hc        1 QJ9      0.101000
     38 H15A        4.2680    0.5400   -2.7660 hc        1 QJ9      0.101000
     39 H17         1.2280    0.0530   -1.1460 h1        1 QJ9      0.093500
     40 H17A        0.4770    1.6910   -1.4040 h1        1 QJ9      0.093500
     41 H21         9.3260    2.6290   -3.2130 hc        1 QJ9      0.122500
     42 H22        10.2010    1.0600   -2.9570 hc        1 QJ9      0.122500
     43 H24         7.5770    3.8310   -2.5070 ha        1 QJ9      0.074000
     44 H26        11.1290   -2.3660    0.0380 hc        1 QJ9      0.068750
     45 H26A        9.9280   -3.5740    0.6660 hc        1 QJ9      0.068750
     46 H26B       11.0340   -4.0210   -0.7010 hc        1 QJ9      0.068750
     47 H25         9.6880   -2.8310   -0.9740 hc        1 QJ9      0.068750
     48 H25A        9.4770   -1.2340   -3.1460 ha        1 QJ9      0.043000
     49 H23         9.0320    0.0670   -4.9830 ha        1 QJ9      0.199000
     50 H14         4.8450    2.4860   -0.9840 h1        1 QJ9      0.218000
     51 H16         2.8280    2.6520   -1.7670 hc        1 QJ9      0.099500
     52 H16A        2.2180    1.4660   -2.9840 hc        1 QJ9      0.099500
     53 H1          1.8200    1.7230    2.9400 hn        1 QJ9      0.255000
     54 H2         -2.0080    0.4230    4.0140 ha        1 QJ9      0.171000
     55 H9         -5.3330   -1.2250   -0.3820 ha        1 QJ9      0.172000
     56 H11        -6.1640   -3.3060   -1.6010 ha        1 QJ9      0.220000
     57 H12        -7.7710   -1.7900    3.7780 ha        1 QJ9      0.229000
     58 C25         8.5580   -1.4250   -2.5440 c1        1 QJ9     -0.012000
@<TRIPOS>BOND
     1    1    3 1   
     2    1   28 1   
     3    2    3 1   
     4    2   11 1   
     5    2   35 1   
     6    3   25 1   
     7    4    5 1   
     8    4   28 1   
     9    4   32 1   
    10    5    7 1   
    11    5   33 1   
    12    6    7 1   
    13    6   31 1   
    14    6   32 1   
    15    7   55 1   
    16    8   29 1   
    17    8   56 1   
    18    9   23 1   
    19    9   36 1   
    20   10   23 1   
    21   10   24 1   
    22   10   37 1   
    23   10   38 1   
    24   11   24 1   
    25   11   39 1   
    26   11   40 1   
    27   12   13 1   
    28   12   17 1   
    29   12   21 1   
    30   13   14 1   
    31   13   41 1   
    32   13   42 1   
    33   14   20 1   
    34   14   49 1   
    35   15   21 1   
    36   15   43 1   
    37   16   44 1   
    38   16   45 1   
    39   16   46 1   
    40   16   47 1   
    41   17   18 1   
    42   17   58 1   
    43   18   19 1   
    44   18   22 1   
    45   21   22 1   
    46   22   23 1   
    47   23   50 1   
    48   24   51 1   
    49   24   52 1   
    50   25   26 1   
    51   25   53 1   
    52   26   27 1   
    53   27   28 1   
    54   27   54 1   
    55   29   34 1   
    56   30   31 1   
    57   30   57 1   
    58   48   58 1   
@<TRIPOS>SUBSTRUCTURE
     1 QJ9         1 TEMP              0 ****  ****    0 ROOT
