@<TRIPOS>MOLECULE
molecule
   39    42     1     0     0
SMALL
bcc


@<TRIPOS>ATOM
      1 C2           0.0000     0.0000     0.0000 ca         1 QJS       0.073900
      2 C3           1.3760     0.0000     0.0000 ca         1 QJS      -0.108000
      3 C13          4.7260    -1.0260    -0.1820 c          1 QJS       0.692100
      4 C15          5.7950    -0.9580    -1.2420 cx         1 QJS      -0.201700
      5 C17          5.9280    -2.1520    -2.1890 cx         1 QJS      -0.081400
      6 C19          6.9830    -1.9120    -1.1080 cx         1 QJS      -0.105400
      7 C22          6.3160    -1.8670    -3.6170 ca         1 QJS      -0.036300
      8 C23          5.4720    -2.2320    -4.6490 ca         1 QJS      -0.125000
      9 C25          5.8290    -1.9700    -5.9590 ca         1 QJS      -0.130500
     10 C27          7.0300    -1.3450    -6.2360 ca         1 QJS      -0.142000
     11 C29          7.8740    -0.9800    -5.2050 ca         1 QJS      -0.130500
     12 F1          -0.6720    -0.0010    -1.1710 f          1 QJS      -0.165900
     13 C5           2.0690     0.0000     1.2160 ca         1 QJS      -0.072800
     14 C6           1.3580     0.0020     2.4290 ca         1 QJS      -0.060200
     15 N7           2.2730     0.0020     3.4570 na         1 QJS      -0.153400
     16 C9           3.5600     0.0020     2.9420 cc         1 QJS      -0.026300
     17 C10          3.4920     0.0010     1.5650 cd         1 QJS      -0.037600
     18 N11          4.5650    -0.0010     0.6790 ns         1 QJS      -0.420100
     19 O14          4.0100    -2.0020    -0.1040 o          1 QJS      -0.611100
     20 C31          7.5160    -1.2370    -3.8950 ca         1 QJS      -0.125000
     21 C33          4.7540     0.0010     3.7080 c          1 QJS       0.885800
     22 O34          4.6980     0.1710     5.0460 o          1 QJS      -0.824800
     23 O35          5.8290    -0.1510     3.1580 o          1 QJS      -0.824800
     24 C37         -0.0350     0.0030     2.4040 ca         1 QJS      -0.126000
     25 C39         -0.7030    -0.0040     1.2010 ca         1 QJS      -0.168000
     26 H1           1.9180     0.1110    -0.9320 ha         1 QJS       0.137000
     27 H2           6.0320     0.0020    -1.6860 hc         1 QJS       0.083700
     28 H3           5.2480    -2.9700    -1.9850 hc         1 QJS       0.115700
     29 H4           6.9470    -2.5870    -0.2620 hc         1 QJS       0.083700
     30 H5           7.9330    -1.5280    -1.4600 hc         1 QJS       0.083700
     31 H6           4.5310    -2.7220    -4.4310 ha         1 QJS       0.136500
     32 H7           5.1670    -2.2560    -6.7670 ha         1 QJS       0.122500
     33 H8           7.3100    -1.1420    -7.2630 ha         1 QJS       0.119000
     34 H9           8.8150    -0.4880    -5.4230 ha         1 QJS       0.122500
     35 H10          2.0440     0.0030     4.4320 hn         1 QJS       0.315700
     36 H11          5.1920     0.7790     0.6520 hn         1 QJS       0.327500
     37 H12          8.1770    -0.9520    -3.0860 ha         1 QJS       0.136500
     38 H14         -0.5930    -0.0000     3.3330 ha         1 QJS       0.119000
     39 H15         -1.7860    -0.0040     1.1880 ha         1 QJS       0.124000
@<TRIPOS>BOND
     1    24    25 ar
     2    24    14 ar
     3    25     1 ar
     4    14    15 1
     5    14    13 ar
     6    15    16 1
     7     1    12 1
     8     1     2 ar
     9    23    21 1
    10    13     2 ar
    11    13    17 1
    12    16    21 1
    13    16    17 2
    14    21    22 1
    15    17    18 1
    16    18     3 1
    17    19     3 2
    18     3     4 1
    19     4     6 1
    20     4     5 1
    21     6     5 1
    22     5     7 1
    23     7     8 ar
    24     7    20 ar
    25     8     9 ar
    26    20    11 ar
    27     9    10 ar
    28    11    10 ar
    29     2    26 1
    30     4    27 1
    31     5    28 1
    32     6    29 1
    33     6    30 1
    34     8    31 1
    35     9    32 1
    36    10    33 1
    37    11    34 1
    38    15    35 1
    39    18    36 1
    40    20    37 1
    41    24    38 1
    42    25    39 1
@<TRIPOS>SUBSTRUCTURE
     1 QJS         1 TEMP              0 ****  ****    0 ROOT
