@<TRIPOS>MOLECULE
molecule
   33    35     1     0     0
SMALL
bcc


@<TRIPOS>ATOM
      1 C4           0.0000     0.0000     0.0000 ca         1 QJZ      -0.070100
      2 C5           1.4000     0.0000     0.0000 ca         1 QJZ       0.166400
      3 C6           2.0760     0.0000     1.2410 ca         1 QJZ      -0.086000
      4 C8           1.1060     0.0000    -2.2390 cc         1 QJZ       0.494800
      5 C10         -0.7620     0.0160     3.6870 cp         1 QJZ       0.540800
      6 C13          3.2090    -0.0010    -5.3460 c3         1 QJZ      -0.169100
      7 C15         -0.0780     0.0210     4.9070 ca         1 QJZ      -0.388600
      8 C21         -4.8720     0.0060     6.5790 c3         1 QJZ      -0.021000
      9 C12          2.7950    -0.0010    -3.8980 c          1 QJZ       0.644100
     10 O14          3.6380    -0.0020    -3.0260 o          1 QJZ      -0.522100
     11 N11          1.4870     0.0000    -3.5710 ns         1 QJZ      -0.462400
     12 N9           1.9220    -0.0000    -1.2410 nd         1 QJZ      -0.586100
     13 S7          -0.5570     0.0000    -1.6710 ss         1 QJZ      -0.151100
     14 C3          -0.7040     0.0060     1.1990 ca         1 QJZ      -0.027000
     15 C1           1.3820    -0.0000     2.4090 ca         1 QJZ      -0.103000
     16 C2          -0.0160     0.0100     2.4070 cp         1 QJZ      -0.165500
     17 N19         -2.0930     0.0110     3.6940 nb         1 QJZ      -0.726000
     18 C16         -0.8160     0.0260     6.0760 ca         1 QJZ       0.473200
     19 N17         -2.1380     0.0260     6.0080 nb         1 QJZ      -0.763000
     20 C18         -2.7610     0.0100     4.8380 ca         1 QJZ       0.795300
     21 S20         -4.5230     0.0040     4.8030 ss         1 QJZ      -0.255400
     22 H6           3.1590    -0.0080     1.2610 ha         1 QJZ       0.154000
     23 H13          2.8100    -0.8820    -5.8350 hc         1 QJZ       0.065700
     24 H13A         2.8230     0.8870    -5.8320 hc         1 QJZ       0.065700
     25 H13B         4.2900    -0.0090    -5.4130 hc         1 QJZ       0.065700
     26 H15          1.0050     0.0210     4.9350 ha         1 QJZ       0.149000
     27 H21         -4.4470     0.8950     7.0300 h1         1 QJZ       0.071700
     28 H21A        -4.4350    -0.8740     7.0340 h1         1 QJZ       0.071700
     29 H21B        -5.9440    -0.0010     6.7360 h1         1 QJZ       0.071700
     30 HN11         0.7910     0.0150    -4.2900 hn         1 QJZ       0.337500
     31 H3          -1.7860     0.0570     1.1910 ha         1 QJZ       0.164000
     32 H1           1.9180    -0.0080     3.3500 ha         1 QJZ       0.138000
     33 H16         -0.3180     0.0340     7.0380 h4         1 QJZ       0.030100
@<TRIPOS>BOND
     1    14     1 ar
     2    13     1 1
     3     1     2 ar
     4     2     3 ar
     5     2    12 1
     6    15     3 ar
     7     3    22 1
     8    13     4 1
     9     4    11 1
    10     4    12 2
    11    17     5 ar
    12     5     7 ar
    13     5    16 1
    14     9     6 1
    15     6    23 1
    16     6    24 1
    17     6    25 1
    18    18     7 ar
    19     7    26 1
    20     8    21 1
    21     8    27 1
    22     8    28 1
    23     8    29 1
    24    10     9 2
    25     9    11 1
    26    11    30 1
    27    14    16 ar
    28    14    31 1
    29    16    15 ar
    30    15    32 1
    31    20    17 ar
    32    19    18 ar
    33    18    33 1
    34    20    19 ar
    35    21    20 1
@<TRIPOS>SUBSTRUCTURE
     1 QJZ         1 TEMP              0 ****  ****    0 ROOT
