@<TRIPOS>MOLECULE
QK0
   45    48     1     0     0
SMALL
bcc


@<TRIPOS>ATOM
      1 C4           0.0000     0.0000     0.0000 ca         1 QK0       0.101400
      2 C5           1.4000     0.0000     0.0000 ca         1 QK0      -0.024100
      3 C6           2.1040     0.0000     1.1990 ca         1 QK0      -0.038000
      4 C8           0.2910    -0.0050    -2.2390 cc         1 QK0       0.309800
      5 C13         -1.8130    -0.0240    -5.3460 c3         1 QK0      -0.066100
      6 C15          1.4840     0.0000     4.9060 ca         1 QK0      -0.150000
      7 C17          3.6190     0.0010     5.9970 ca         1 QK0       0.351300
      8 C26          0.9020    -3.3040     8.4000 ca         1 QK0       0.034500
      9 C28          1.0930    -5.2220     6.9770 ca         1 QK0       0.163900
     10 O14         -2.2410    -0.0180    -3.0250 o          1 QK0      -0.562100
     11 N10         -0.0900    -0.0110    -3.5710 ns         1 QK0      -0.006400
     12 N7          -0.5230    -0.0060    -1.2400 nd         1 QK0      -0.441100
     13 S9           1.9550    -0.0010    -1.6720 ss         1 QK0      -0.238100
     14 C3          -0.6750    -0.0000     1.2410 ca         1 QK0      -0.044000
     15 C2           0.0200     0.0070     2.4100 ca         1 QK0      -0.092000
     16 C1           1.4190     0.0000     2.4070 cp         1 QK0      -0.039000
     17 C11          2.1660    -0.0000     3.6880 cp         1 QK0      -0.108300
     18 C19          3.5590     0.0010     3.6920 ca         1 QK0       0.379200
     19 N18          4.2290     0.0010     4.8270 nb         1 QK0      -0.531000
     20 C16          2.2300     0.0060     6.0790 ca         1 QK0      -0.027700
     21 N21          1.5940     0.0070     7.3230 nu         1 QK0      -0.377500
     22 S22          0.1740    -0.8220     7.5290 sy         1 QK0       1.046200
     23 O23         -0.1930    -0.6570     8.8910 o          1 QK0      -0.580800
     24 O24         -0.6680    -0.4500     6.4460 o          1 QK0      -0.580800
     25 C25          0.5340    -2.5330     7.3140 ca         1 QK0      -0.187500
     26 C27          1.1850    -4.6460     8.2330 ca         1 QK0      -0.162500
     27 C29          0.7300    -4.4480     5.8880 ca         1 QK0      -0.162500
     28 C30          0.4490    -3.1050     6.0570 ca         1 QK0       0.034500
     29 H6           3.1870    -0.0050     1.1910 ha         1 QK0       0.119000
     30 H13         -1.4070    -0.9010    -5.8350 hc         1 QK0       0.025367
     31 H13A        -1.4460     0.8680    -5.8410 hc         1 QK0       0.025367
     32 H13B        -2.8950    -0.0480    -5.4020 hc         1 QK0       0.025367
     33 H15          0.4010     0.0040     4.9370 ha         1 QK0       0.194000
     34 H26          0.9740    -2.8540     9.3830 ha         1 QK0       0.126500
     35 HN10         0.6050     0.0150    -4.2900 hn         1 QK0       0.174500
     36 H3          -1.7580     0.0050     1.2620 ha         1 QK0       0.122000
     37 H2          -0.5140     0.0070     3.3520 ha         1 QK0       0.129000
     38 H19          4.0980     0.0000     2.7530 h4         1 QK0      -0.006900
     39 HN21         2.0500     0.4160     8.1150 hn         1 QK0       0.355800
     40 H27          1.4730    -5.2490     9.0860 ha         1 QK0       0.127500
     41 H29          0.6600    -4.8960     4.9050 ha         1 QK0       0.127500
     42 H30          0.1620    -2.5000     5.2050 ha         1 QK0       0.126500
     43 Cl20         4.5630     0.0010     7.4540 cl         1 QK0      -0.088000
     44 C12         -1.3980    -0.0180    -3.8970 c          1 QK0       0.537100
     45 F31          1.3680    -6.5340     6.8130 f          1 QK0      -0.120900
@<TRIPOS>BOND
     1     1     2 ar  
     2     1    12 1   
     3     1    14 ar  
     4     2     3 ar  
     5     2    13 1   
     6     3    16 ar  
     7     3    29 1   
     8     4    11 1   
     9     4    12 2   
    10     4    13 1   
    11     5    30 1   
    12     5    31 1   
    13     5    32 1   
    14     5    44 1   
    15     6    17 ar  
    16     6    20 ar  
    17     6    33 1   
    18     7    19 ar  
    19     7    20 ar  
    20     7    43 1   
    21     8    25 ar  
    22     8    26 ar  
    23     8    34 1   
    24     9    26 ar  
    25     9    27 ar  
    26     9    45 1   
    27    10    44 2   
    28    11    35 1   
    29    11    44 1   
    30    14    15 ar  
    31    14    36 1   
    32    15    16 ar  
    33    15    37 1   
    34    16    17 1   
    35    17    18 ar  
    36    18    19 ar  
    37    18    38 1   
    38    20    21 1   
    39    21    22 1   
    40    21    39 1   
    41    22    23 2   
    42    22    24 2   
    43    22    25 1   
    44    25    28 ar  
    45    26    40 1   
    46    27    28 ar  
    47    27    41 1   
    48    28    42 1   
@<TRIPOS>SUBSTRUCTURE
     1 QK0         1 TEMP              0 ****  ****    0 ROOT
