@<TRIPOS>MOLECULE
molecule
   45    48     1     0     0
SMALL
bcc


@<TRIPOS>ATOM
      1 C4           0.0000     0.0000     0.0000 ca         1 QK0       0.159400
      2 C5           1.4000     0.0000     0.0000 ca         1 QK0      -0.058100
      3 C6           2.1040     0.0000     1.1990 ca         1 QK0      -0.068000
      4 C8           0.2910    -0.0050    -2.2390 cc         1 QK0       0.496800
      5 C13         -1.8130    -0.0240    -5.3460 c3         1 QK0      -0.169100
      6 C15          1.4840     0.0000     4.9060 ca         1 QK0      -0.143000
      7 C17          3.6190     0.0010     5.9970 ca         1 QK0       0.485300
      8 C26          0.9020    -3.3040     8.4000 ca         1 QK0       0.001500
      9 C28          1.0930    -5.2220     6.9770 ca         1 QK0       0.193900
     10 O14         -2.2410    -0.0180    -3.0250 o          1 QK0      -0.521100
     11 N10         -0.0900    -0.0110    -3.5710 ns         1 QK0      -0.462400
     12 N7          -0.5230    -0.0060    -1.2400 nd         1 QK0      -0.583100
     13 S9           1.9550    -0.0010    -1.6720 ss         1 QK0      -0.161100
     14 C3          -0.6750    -0.0000     1.2410 ca         1 QK0      -0.075000
     15 C2           0.0200     0.0070     2.4100 ca         1 QK0      -0.111000
     16 C1           1.4190     0.0000     2.4070 cp         1 QK0      -0.047000
     17 C11          2.1660    -0.0000     3.6880 cp         1 QK0      -0.122300
     18 C19          3.5590     0.0010     3.6920 ca         1 QK0       0.418200
     19 N18          4.2290     0.0010     4.8270 nb         1 QK0      -0.659000
     20 C16          2.2300     0.0060     6.0790 ca         1 QK0       0.048300
     21 N21          1.5940     0.0070     7.3230 nu         1 QK0      -0.752500
     22 S22          0.1740    -0.8220     7.5290 sy         1 QK0       1.426200
     23 O23         -0.1930    -0.6570     8.8910 o          1 QK0      -0.628800
     24 O24         -0.6680    -0.4500     6.4460 o          1 QK0      -0.628800
     25 C25          0.5340    -2.5330     7.3140 ca         1 QK0      -0.340500
     26 C27          1.1850    -4.6460     8.2330 ca         1 QK0      -0.189500
     27 C29          0.7300    -4.4480     5.8880 ca         1 QK0      -0.189500
     28 C30          0.4490    -3.1050     6.0570 ca         1 QK0       0.001500
     29 H6           3.1870    -0.0050     1.1910 ha         1 QK0       0.138000
     30 H13         -1.4070    -0.9010    -5.8350 hc         1 QK0       0.066033
     31 H13A        -1.4460     0.8680    -5.8410 hc         1 QK0       0.066033
     32 H13B        -2.8950    -0.0480    -5.4020 hc         1 QK0       0.066033
     33 H15          0.4010     0.0040     4.9370 ha         1 QK0       0.204000
     34 H26          0.9740    -2.8540     9.3830 ha         1 QK0       0.156000
     35 HN10         0.6050     0.0150    -4.2900 hn         1 QK0       0.337500
     36 H3          -1.7580     0.0050     1.2620 ha         1 QK0       0.158000
     37 H2          -0.5140     0.0070     3.3520 ha         1 QK0       0.153000
     38 H19          4.0980     0.0000     2.7530 h4         1 QK0       0.035100
     39 HN21         2.0500     0.4160     8.1150 hn         1 QK0       0.474800
     40 H27          1.4730    -5.2490     9.0860 ha         1 QK0       0.155000
     41 H29          0.6600    -4.8960     4.9050 ha         1 QK0       0.155000
     42 H30          0.1620    -2.5000     5.2050 ha         1 QK0       0.156000
     43 Cl20         4.5630     0.0010     7.4540 cl         1 QK0      -0.155000
     44 C12         -1.3980    -0.0180    -3.8970 c          1 QK0       0.644100
     45 F31          1.3680    -6.5340     6.8130 f          1 QK0      -0.129900
@<TRIPOS>BOND
     1     2     1 ar
     2     1    14 ar
     3     1    12 1
     4     3     2 ar
     5    13     2 1
     6     3    16 ar
     7     3    29 1
     8    13     4 1
     9     4    11 1
    10     4    12 2
    11    44     5 1
    12     5    30 1
    13     5    31 1
    14     5    32 1
    15    20     6 ar
    16     6    17 ar
    17     6    33 1
    18    20     7 ar
    19    43     7 1
    20     7    19 ar
    21    25     8 ar
    22     8    26 ar
    23     8    34 1
    24    27     9 ar
    25    26     9 ar
    26     9    45 1
    27    10    44 2
    28    44    11 1
    29    11    35 1
    30    15    14 ar
    31    14    36 1
    32    16    15 ar
    33    15    37 1
    34    17    16 1
    35    17    18 ar
    36    19    18 ar
    37    18    38 1
    38    21    20 1
    39    22    21 1
    40    21    39 1
    41    24    22 2
    42    23    22 2
    43    22    25 1
    44    25    28 ar
    45    26    40 1
    46    28    27 ar
    47    27    41 1
    48    28    42 1
@<TRIPOS>SUBSTRUCTURE
     1 QK0         1 TEMP              0 ****  ****    0 ROOT
