@<TRIPOS>MOLECULE
molecule
   58    63     1     0     0
SMALL
bcc


@<TRIPOS>ATOM
      1 N1           0.0000     0.0000     0.0000 nb         1 QK5      -0.710000
      2 N3           0.1640     1.2400     6.7410 nh         1 QK5      -0.685300
      3 C4          -0.0250     0.0010     2.3660 ca         1 QK5      -0.207100
      4 C5           1.3720     0.0010     2.3890 ca         1 QK5      -0.049000
      5 C6          -2.2460     0.0020     2.7570 cc         1 QK5      -0.037300
      6 C7          -1.0660     0.0010     3.3960 cd         1 QK5      -0.135400
      7 C8          -0.8530     0.0020     4.8870 c3         1 QK5       0.006500
      8 C10          0.9580     0.0740     7.1470 c3         1 QK5       0.166800
      9 C13         -3.5950     0.0010     3.4300 c3         1 QK5      -0.036900
     10 C15          1.6240     3.6980     8.8720 ca         1 QK5       0.573100
     11 C17          1.6130     4.4910     6.6170 ca         1 QK5       0.488200
     12 C20          2.0760     3.3660    12.5880 ca         1 QK5      -0.087800
     13 C21          2.6600     4.6380    12.6080 ca         1 QK5      -0.005100
     14 C22          1.9540     2.6530    13.8020 ca         1 QK5      -0.082000
     15 C24          2.9740     4.4590    14.9860 ca         1 QK5      -0.111000
     16 C19          1.6800     2.9720    11.2500 cc         1 QK5      -0.072200
     17 C23          2.3970     3.1960    14.9690 ca         1 QK5      -0.134000
     18 C25          3.1070     5.1760    13.8200 ca         1 QK5      -0.100000
     19 S1           2.6920     5.3070    10.9820 ss         1 QK5      -0.089500
     20 C18          1.9380     3.8760    10.3040 cd         1 QK5      -0.126200
     21 N4           1.0440     2.5770     8.4410 nb         1 QK5      -0.755000
     22 C16          1.9260     4.7040     7.9470 ca         1 QK5      -0.408600
     23 N5           1.0410     3.3520     6.2600 nb         1 QK5      -0.783000
     24 C14          0.7620     2.4170     7.1580 ca         1 QK5       0.877900
     25 C9          -0.0620     1.2500     5.2900 c3         1 QK5       0.178800
     26 C11          0.1990    -1.2080     6.8000 c3         1 QK5      -0.075400
     27 C12         -0.0650    -1.2470     5.2920 c3         1 QK5      -0.080400
     28 C1           2.0420     0.0000     1.1810 ca         1 QK5      -0.283300
     29 C2           1.3160     0.0000     0.0000 ca         1 QK5       0.450200
     30 C3          -0.6970     0.0000     1.1280 ca         1 QK5       0.476800
     31 N2          -2.0430     0.0010     1.4020 na         1 QK5      -0.175100
     32 C27         -3.4610     1.3880     0.0560 c1         1 QK5       0.193700
     33 N6          -3.7190     2.4660    -0.1960 n1         1 QK5      -0.345800
     34 H5           1.8980     0.0450     3.3350 ha         1 QK5       0.140000
     35 H8          -1.8100     0.0030     5.3940 hc         1 QK5       0.066700
     36 H10          0.9700     0.0180     8.2290 h1         1 QK5       0.051200
     37 H10A         1.9710     0.1960     6.7850 h1         1 QK5       0.051200
     38 H13         -4.2180     0.7710     2.9910 hc         1 QK5       0.055033
     39 H13A        -3.4700     0.1970     4.4880 hc         1 QK5       0.055033
     40 H13B        -4.0650    -0.9650     3.2950 hc         1 QK5       0.055033
     41 H17          1.8350     5.2530     5.8800 h4         1 QK5       0.031100
     42 H24          3.3230     4.8820    15.9200 ha         1 QK5       0.135000
     43 H19          1.2100     2.0350    10.9770 ha         1 QK5       0.174000
     44 H23          2.2990     2.6430    15.8950 ha         1 QK5       0.134000
     45 H25          3.5600     6.1600    13.8410 ha         1 QK5       0.136000
     46 H16          2.3350     5.6480     8.2880 ha         1 QK5       0.151000
     47 H9          -0.7440     2.0560     5.0470 h1         1 QK5       0.062200
     48 H9A          0.8830     1.4190     4.7900 h1         1 QK5       0.062200
     49 H11          0.8410    -2.0590     6.9960 hc         1 QK5       0.053200
     50 H11A        -0.6820    -1.2740     7.4260 hc         1 QK5       0.053200
     51 H12          0.8400    -1.2980     4.6990 hc         1 QK5       0.047700
     52 H12A        -0.6710    -2.1230     5.0960 hc         1 QK5       0.047700
     53 H1           3.1250     0.0000     1.1620 ha         1 QK5       0.139000
     54 H2           1.8570    -0.0000    -0.9380 h4         1 QK5       0.025100
     55 C26         -3.1060     0.0010     0.3940 c3         1 QK5       0.114400
     56 H22          1.5050     1.6670    13.8080 ha         1 QK5       0.135000
     57 H26         -2.9970    -0.8660    -0.2460 h1         1 QK5       0.094700
     58 H26A        -4.0710    -0.0340     0.8870 h1         1 QK5       0.094700
@<TRIPOS>BOND
     1    30     1 ar
     2     1    29 ar
     3    24     2 1
     4     2    25 1
     5     2     8 1
     6     6     3 1
     7    30     3 ar
     8     3     4 ar
     9     4    28 ar
    10     4    34 1
    11     9     5 1
    12     5    31 1
    13     5     6 2
    14     7     6 1
    15    25     7 1
    16     7    27 1
    17     7    35 1
    18     8    26 1
    19     8    36 1
    20     8    37 1
    21     9    38 1
    22     9    39 1
    23     9    40 1
    24    22    10 ar
    25    10    20 1
    26    10    21 ar
    27    11    22 ar
    28    11    23 ar
    29    11    41 1
    30    14    12 ar
    31    16    12 1
    32    12    13 ar
    33    13    19 1
    34    13    18 ar
    35    14    17 ar
    36    14    56 1
    37    17    15 ar
    38    15    18 ar
    39    15    42 1
    40    55    32 1
    41    55    31 1
    42    55    57 1
    43    55    58 1
    44    16    20 2
    45    16    43 1
    46    17    44 1
    47    18    45 1
    48    20    19 1
    49    24    21 ar
    50    22    46 1
    51    23    24 ar
    52    25    47 1
    53    25    48 1
    54    26    27 1
    55    26    49 1
    56    26    50 1
    57    27    51 1
    58    27    52 1
    59    29    28 ar
    60    28    53 1
    61    29    54 1
    62    31    30 1
    63    32    33 3
@<TRIPOS>SUBSTRUCTURE
     1 QK5         1 TEMP              0 ****  ****    0 ROOT
