@<TRIPOS>MOLECULE
QKV
   34    36     1     0     0
SMALL
bcc


@<TRIPOS>ATOM
      1 N1           0.0000     0.0000     0.0000 n3         1 QKV      -0.539600
      2 C4           1.7170     2.3610     4.2450 ca         1 QKV       0.180100
      3 C5          -0.0810     1.2460     2.1070 c3         1 QKV      -0.056900
      4 C6           1.9790     0.0000     1.4430 c3         1 QKV      -0.056900
      5 C8           1.4680     0.0000     0.0000 c3         1 QKV       0.162300
      6 C10          1.4180     3.6240     2.0930 c3         1 QKV       0.277700
      7 C13          1.7830     2.3220     5.6310 ca         1 QKV      -0.135000
      8 C15          1.6310     3.4830     6.3630 ca         1 QKV      -0.045000
      9 C14          1.4130     4.6850     5.7150 ca         1 QKV      -0.002900
     10 C3           1.4970     3.5670     3.5980 ca         1 QKV      -0.223300
     11 C11          1.3460     4.7280     4.3340 ca         1 QKV      -0.037000
     12 O1           1.8730     1.2130     3.5330 os         1 QKV      -0.311900
     13 C2           1.4480     1.2370     2.1690 c3         1 QKV       0.368600
     14 O2           1.9590     2.4180     1.5440 os         1 QKV      -0.415600
     15 C9          -0.5300     1.2080     0.6450 c3         1 QKV       0.162300
     16 C1          -0.5250    -0.1420    -1.3640 c3         1 QKV       0.398600
     17 O3          -0.4970    -1.5190    -1.7450 oh         1 QKV      -0.585800
     18 H5          -0.4550     2.1480     2.5760 hc         1 QKV       0.041200
     19 H5A         -0.4680     0.3760     2.6250 hc         1 QKV       0.041200
     20 H6           3.0620     0.0210     1.4420 hc         1 QKV       0.041200
     21 H6A          1.6300    -0.8920     1.9490 hc         1 QKV       0.041200
     22 H8           1.8280    -0.8860    -0.5090 h1         1 QKV       0.017700
     23 H8A          1.8280     0.8860    -0.5090 h1         1 QKV       0.017700
     24 H10          2.0090     4.4620     1.7430 h1         1 QKV       0.023200
     25 H10A         0.3780     3.7050     1.8000 h1         1 QKV       0.023200
     26 H13          1.9540     1.3800     6.1390 ha         1 QKV       0.122000
     27 H15          1.6820     3.4520     7.4450 ha         1 QKV       0.117000
     28 H11          1.1750     5.6710     3.8290 ha         1 QKV       0.116000
     29 H9          -0.1550     2.0850     0.1310 h1         1 QKV       0.017700
     30 H9A         -1.6130     1.1940     0.6010 h1         1 QKV       0.017700
     31 H1           0.0860     0.4350    -2.0480 h2         1 QKV      -0.018300
     32 H1A         -1.5460     0.2210    -1.3980 h2         1 QKV      -0.018300
     33 HO3         -1.0660    -1.6530    -2.4850 ho         1 QKV       0.392000
     34 Br1          1.2060     6.2750     6.7190 br         1 QKV      -0.131100
@<TRIPOS>BOND
     1     1     5 1   
     2     1    15 1   
     3     1    16 1   
     4     2     7 ar  
     5     2    10 ar  
     6     2    12 1   
     7     3    13 1   
     8     3    15 1   
     9     3    18 1   
    10     3    19 1   
    11     4     5 1   
    12     4    13 1   
    13     4    20 1   
    14     4    21 1   
    15     5    22 1   
    16     5    23 1   
    17     6    10 1   
    18     6    14 1   
    19     6    24 1   
    20     6    25 1   
    21     7     8 ar  
    22     7    26 1   
    23     8     9 ar  
    24     8    27 1   
    25     9    11 ar  
    26     9    34 1   
    27    10    11 ar  
    28    11    28 1   
    29    12    13 1   
    30    13    14 1   
    31    15    29 1   
    32    15    30 1   
    33    16    17 1   
    34    16    31 1   
    35    16    32 1   
    36    17    33 1   
@<TRIPOS>SUBSTRUCTURE
     1 QKV         1 TEMP              0 ****  ****    0 ROOT
