@<TRIPOS>MOLECULE
QL2
   32    34     1     0     0
SMALL
bcc


@<TRIPOS>ATOM
      1 N1           0.0000     0.0000     0.0000 nb         1 QL2      -0.675000
      2 C2           1.3300     0.0000     0.0000 ca         1 QL2       0.762000
      3 N2           2.5530     0.0100    -2.2580 n1         1 QL2      -0.340800
      4 N3           2.0370     0.0000     1.1200 nb         1 QL2      -0.595000
      5 C4           1.4330    -0.0000     2.2990 ca         1 QL2       0.238800
      6 C5           0.0260     0.0000     2.3500 ca         1 QL2      -0.182200
      7 C6          -0.6850     0.0000     1.1350 ca         1 QL2       0.569200
      8 N6          -2.0700    -0.0000     1.1260 nu         1 QL2      -0.333300
      9 N7          -0.3260     0.0000     3.6560 nc         1 QL2      -0.444100
     10 C8           0.7470    -0.0010     4.3940 cd         1 QL2       0.285700
     11 N9           1.8570    -0.0000     3.6050 na         1 QL2       0.146000
     12 CAA          3.7720     1.4360     4.1060 c3         1 QL2       0.005900
     13 CAI         -4.1290    -0.3620    -2.4790 ca         1 QL2      -0.166000
     14 CAJ         -2.2520    -0.9220    -1.0970 ca         1 QL2      -0.145500
     15 CAK         -3.9570     0.5580    -0.2710 ca         1 QL2      -0.145500
     16 CAL          3.2490    -0.0010     4.0650 c3         1 QL2      -0.119700
     17 CAS          2.0210     0.0000    -1.2540 cg         1 QL2       0.123800
     18 CAT         -2.9370    -1.0400    -2.2940 ca         1 QL2       0.136900
     19 CAU         -4.6400     0.4360    -1.4700 ca         1 QL2       0.136900
     20 CAV         -2.7610    -0.1210    -0.0830 ca         1 QL2       0.025600
     21 HN6         -2.1250    -0.9310     1.4900 hn         1 QL2       0.273800
     22 H8           1.2190    -0.0180     5.3690 h5         1 QL2       0.034800
     23 HAA          4.5610     1.4430     3.3640 hc         1 QL2       0.018700
     24 HAAA         3.0990     2.2670     3.9340 hc         1 QL2       0.018700
     25 HAAB         4.3830     1.4070     5.0010 hc         1 QL2       0.018700
     26 HAI         -4.7410    -0.3490    -3.3740 ha         1 QL2       0.136000
     27 HAJ         -1.2770    -1.3140    -0.8330 ha         1 QL2       0.144500
     28 HAK         -4.4420     1.3380     0.3040 ha         1 QL2       0.144500
     29 HAL          3.7200     0.1520     3.1020 h1         1 QL2       0.085200
     30 HALA         3.3340    -0.8750     4.7000 h1         1 QL2       0.085200
     31 FAE         -2.4410    -1.8180    -3.2810 f          1 QL2      -0.121900
     32 FAF         -5.8030     1.0970    -1.6540 f          1 QL2      -0.121900
@<TRIPOS>BOND
     1     1     2 ar  
     2     1     7 ar  
     3     2     4 ar  
     4     2    17 1   
     5     3    17 3   
     6     4     5 ar  
     7     5     6 ar  
     8     5    11 1   
     9     6     7 ar  
    10     6     9 1   
    11     7     8 1   
    12     8    20 1   
    13     8    21 1   
    14     9    10 2   
    15    10    11 1   
    16    10    22 1   
    17    11    16 1   
    18    12    16 1   
    19    12    23 1   
    20    12    24 1   
    21    12    25 1   
    22    13    18 ar  
    23    13    19 ar  
    24    13    26 1   
    25    14    18 ar  
    26    14    20 ar  
    27    14    27 1   
    28    15    19 ar  
    29    15    20 ar  
    30    15    28 1   
    31    16    29 1   
    32    16    30 1   
    33    18    31 1   
    34    19    32 1   
@<TRIPOS>SUBSTRUCTURE
     1 QL2         1 TEMP              0 ****  ****    0 ROOT
