@<TRIPOS>MOLECULE
QLE
   65    67     1     0     0
SMALL
bcc


@<TRIPOS>ATOM
      1 O5           0.0000     0.0000     0.0000 o          1 QLE      -0.381000
      2 C22          1.2130     0.0000     0.0000 c3         1 QLE       0.333000
      3 C20          1.9650     0.0000     1.3060 c3         1 QLE      -0.135000
      4 C21          0.9720    -0.0900     2.4670 c3         1 QLE      -0.100000
      5 C19          2.7760     1.2920     1.4280 c3         1 QLE      -0.115000
      6 C17          4.0440     1.1810     0.5790 c3         1 QLE      -0.137000
      7 C18          5.1590     0.5450     1.4110 c3         1 QLE      -0.128000
      8 C11          4.4780     2.5760     0.1260 c3         1 QLE       0.082000
      9 O3           3.3030     3.3750    -0.1720 os         1 QLE      -0.249000
     10 C12          3.4020     4.7010     0.0200 c2         1 QLE       0.370000
     11 O4           4.4370     5.1770     0.4230 o          1 QLE      -0.397000
     12 C13          2.2230     5.5940    -0.2690 c3         1 QLE      -0.110000
     13 C14          2.5990     7.0470     0.0310 c3         1 QLE      -0.076000
     14 N            1.4500     7.9180    -0.2500 n3         1 QLE      -0.075000
     15 C16          0.3440     7.6440     0.6770 c3         1 QLE      -0.093500
     16 C15          1.8400     9.3340    -0.2030 c3         1 QLE      -0.093500
     17 C9           5.3460     2.4580    -1.1290 c3         1 QLE      -0.111000
     18 C10          6.2180     1.2050    -1.0280 c3         1 QLE      -0.140000
     19 C8           4.4620     2.3590    -2.3440 c2         1 QLE       0.380000
     20 O2           4.3540     3.3020    -3.0930 o          1 QLE      -0.390000
     21 O1           3.7920     1.2230    -2.5950 os         1 QLE      -0.234000
     22 C5           2.9580     1.1980    -3.7840 c3         1 QLE       0.067000
     23 C6           2.1230     2.4790    -3.8490 c3         1 QLE      -0.191000
     24 C7           1.3330     2.6390    -2.5480 c3         1 QLE      -0.155000
     25 C3           2.0270    -0.0150    -3.7280 DU         1 QLE      -0.031000
     26 C4           1.0320     0.0520    -4.8880 c3         1 QLE      -0.118000
     27 C2           1.2770    -0.0130    -2.4220 c2         1 QLE      -0.104000
     28 C1           1.9450    -0.0080    -1.2660 c2         1 QLE      -0.150000
     29 H20          2.6350    -0.8510     1.3370 hc         1 QLE       0.089000
     30 H1           1.4790     0.8680    -0.8320 DU         1 QLE       0.085000
     31 H211         0.3260     0.7800     2.4580 hc         1 QLE       0.050000
     32 H212         1.5140    -0.1290     3.4040 hc         1 QLE       0.050000
     33 H213         0.3720    -0.9860     2.3600 hc         1 QLE       0.050000
     34 H191         3.0490     1.4500     2.4650 hc         1 QLE       0.074500
     35 H192         2.1800     2.1270     1.0800 hc         1 QLE       0.074500
     36 H17          3.8440     0.5650    -0.2890 hc         1 QLE       0.115000
     37 H181         5.9590     1.2620     1.5510 hc         1 QLE       0.053000
     38 H182         4.7670     0.2490     2.3760 hc         1 QLE       0.053000
     39 H183         5.5420    -0.3270     0.8940 hc         1 QLE       0.053000
     40 H11          5.0470     3.0520     0.9160 h1         1 QLE       0.093000
     41 H9           5.9790     3.3330    -1.2130 hc         1 QLE       0.110000
     42 H131         1.9460     5.5000    -1.3120 hc         1 QLE       0.088000
     43 H132         1.3870     5.3010     0.3550 hc         1 QLE       0.088000
     44 H141         3.4350     7.3400    -0.5930 h1         1 QLE       0.063500
     45 H142         2.8770     7.1400     1.0740 h1         1 QLE       0.063500
     46 H161        -0.2840     8.5230     0.7590 h1         1 QLE       0.041500
     47 H162        -0.2430     6.8140     0.3040 h1         1 QLE       0.041500
     48 H163         0.7430     7.3950     1.6530 h1         1 QLE       0.041500
     49 H151         0.9900     9.9520    -0.4670 h1         1 QLE       0.041500
     50 H152         2.1710     9.5840     0.7980 h1         1 QLE       0.041500
     51 H153         2.6460     9.5100    -0.9040 h1         1 QLE       0.041500
     52 H101         5.5850     0.3290    -0.9550 hc         1 QLE       0.062333
     53 H102         6.8460     1.2710    -0.1480 hc         1 QLE       0.062333
     54 H103         6.8410     1.1270    -1.9110 hc         1 QLE       0.062333
     55 H5           3.5860     1.1310    -4.6640 h1         1 QLE       0.064000
     56 H61C         2.7790     3.3310    -3.9800 hc         1 QLE       0.097000
     57 H62C         1.4350     2.4200    -4.6840 hc         1 QLE       0.097000
     58 HA           2.6120    -0.9240    -3.8070 ha         1 QLE       0.084000
     59 H71C         1.9620     2.3680    -1.7080 hc         1 QLE       0.059000
     60 H72C         0.4640     1.9930    -2.5710 hc         1 QLE       0.059000
     61 H73C         1.0150     3.6690    -2.4430 hc         1 QLE       0.059000
     62 H41C         1.4800     0.5860    -5.7180 hc         1 QLE       0.056333
     63 H42C         0.7750    -0.9520    -5.2020 hc         1 QLE       0.056333
     64 H43C         0.1370     0.5700    -4.5670 hc         1 QLE       0.056333
     65 H2           1.7440    -0.8890    -2.8560 DU         1 QLE       0.106000
@<TRIPOS>BOND
     1     1     2 1   
     2     2     3 1   
     3     2    28 1   
     4     2    30 1   
     5     3     4 1   
     6     3     5 1   
     7     3    29 1   
     8     4    31 1   
     9     4    32 1   
    10     4    33 1   
    11     5     6 1   
    12     5    34 1   
    13     5    35 1   
    14     6     7 1   
    15     6     8 1   
    16     6    36 1   
    17     7    37 1   
    18     7    38 1   
    19     7    39 1   
    20     8     9 1   
    21     8    17 1   
    22     8    40 1   
    23     9    10 1   
    24    10    11 1   
    25    10    12 1   
    26    12    13 1   
    27    12    42 1   
    28    12    43 1   
    29    13    14 1   
    30    13    44 1   
    31    13    45 1   
    32    14    15 1   
    33    14    16 1   
    34    15    46 1   
    35    15    47 1   
    36    15    48 1   
    37    16    49 1   
    38    16    50 1   
    39    16    51 1   
    40    17    18 1   
    41    17    19 1   
    42    17    41 1   
    43    18    52 1   
    44    18    53 1   
    45    18    54 1   
    46    19    20 1   
    47    19    21 1   
    48    21    22 1   
    49    22    23 1   
    50    22    25 1   
    51    22    55 1   
    52    23    24 1   
    53    23    56 1   
    54    23    57 1   
    55    24    59 1   
    56    24    60 1   
    57    24    61 1   
    58    25    26 1   
    59    25    27 1   
    60    25    58 1   
    61    25    65 1   
    62    26    62 1   
    63    26    63 1   
    64    26    64 1   
    65    27    28 1   
    66    27    65 1   
    67    28    30 1   
@<TRIPOS>SUBSTRUCTURE
     1 QLE         1 TEMP              0 ****  ****    0 ROOT
