@<TRIPOS>MOLECULE
molecule
   65    65     1     0     0
SMALL
bcc


@<TRIPOS>ATOM
      1 O5           0.0000     0.0000     0.0000 o          1 QLE      -0.541100
      2 C22          1.2130     0.0000     0.0000 c          1 QLE       0.572300
      3 C20          1.9650     0.0000     1.3060 c3         1 QLE      -0.166700
      4 C21          0.9720    -0.0900     2.4670 c3         1 QLE      -0.078100
      5 C19          2.7760     1.2920     1.4280 c3         1 QLE      -0.068400
      6 C17          4.0440     1.1810     0.5790 c3         1 QLE      -0.098700
      7 C18          5.1590     0.5450     1.4110 c3         1 QLE      -0.093100
      8 C11          4.4780     2.5760     0.1260 c3         1 QLE       0.159100
      9 O3           3.3030     3.3750    -0.1720 os         1 QLE      -0.424900
     10 C12          3.4020     4.7010     0.0200 c          1 QLE       0.635100
     11 O4           4.4370     5.1770     0.4230 o          1 QLE      -0.554000
     12 C13          2.2230     5.5940    -0.2690 c3         1 QLE      -0.126400
     13 C14          2.5990     7.0470     0.0310 c3         1 QLE       0.171800
     14 N            1.4500     7.9180    -0.2500 n3         1 QLE      -0.735600
     15 C16          0.3440     7.6440     0.6770 c3         1 QLE       0.150100
     16 C15          1.8400     9.3340    -0.2030 c3         1 QLE       0.150100
     17 C9           5.3460     2.4580    -1.1290 c3         1 QLE      -0.135700
     18 C10          6.2180     1.2050    -1.0280 c3         1 QLE      -0.096100
     19 C8           4.4620     2.3590    -2.3440 c          1 QLE       0.649100
     20 O2           4.3540     3.3020    -3.0930 o          1 QLE      -0.544000
     21 O1           3.7920     1.2230    -2.5950 os         1 QLE      -0.428900
     22 C5           2.9580     1.1980    -3.7840 c3         1 QLE       0.165100
     23 C6           2.1230     2.4790    -3.8490 c3         1 QLE      -0.136400
     24 C7           1.3330     2.6390    -2.5480 c3         1 QLE      -0.101100
     25 C3           2.0270    -0.0150    -3.7280 c3         1 QLE      -0.048500
     26 C4           1.0320     0.0520    -4.8880 c3         1 QLE      -0.087100
     27 C2           1.2770    -0.0130    -2.4220 c2         1 QLE      -0.073200
     28 C1           1.9450    -0.0080    -1.2660 ce         1 QLE      -0.285200
     29 H20          2.6350    -0.8510     1.3370 hc         1 QLE       0.066700
     30 H1           3.0280    -0.0050    -1.2660 ha         1 QLE       0.163000
     31 H211         0.3120     0.7680     2.4450 hc         1 QLE       0.041700
     32 H212         0.3880    -0.9980     2.3720 hc         1 QLE       0.041700
     33 H213         1.5130    -0.1050     3.4050 hc         1 QLE       0.041700
     34 H191         2.1800     2.1270     1.0800 hc         1 QLE       0.059200
     35 H192         3.0480     1.4500     2.4650 hc         1 QLE       0.059200
     36 H17          3.8440     0.5650    -0.2890 hc         1 QLE       0.088700
     37 H181         4.7700     0.2610     2.3810 hc         1 QLE       0.040367
     38 H182         5.9650     1.2570     1.5400 hc         1 QLE       0.040367
     39 H183         5.5330    -0.3350     0.9010 hc         1 QLE       0.040367
     40 H11          5.0470     3.0520     0.9160 h1         1 QLE       0.082700
     41 H9           5.9790     3.3330    -1.2130 hc         1 QLE       0.102700
     42 H131         1.9460     5.5000    -1.3120 hc         1 QLE       0.082700
     43 H132         1.3870     5.3010     0.3550 hc         1 QLE       0.082700
     44 H141         3.4350     7.3400    -0.5930 h1         1 QLE       0.050200
     45 H142         2.8770     7.1400     1.0740 h1         1 QLE       0.050200
     46 H161         0.7440     7.3660     1.6450 h1         1 QLE       0.033533
     47 H162        -0.2600     6.8330     0.2890 h1         1 QLE       0.033533
     48 H163        -0.2680     8.5330     0.7810 h1         1 QLE       0.033533
     49 H151         2.1700     9.5850     0.7980 h1         1 QLE       0.033533
     50 H152         2.6470     9.5100    -0.9030 h1         1 QLE       0.033533
     51 H153         0.9910     9.9520    -0.4680 h1         1 QLE       0.033533
     52 H101         6.8500     1.2740    -0.1520 hc         1 QLE       0.049700
     53 H102         5.5850     0.3290    -0.9490 hc         1 QLE       0.049700
     54 H103         6.8360     1.1240    -1.9140 hc         1 QLE       0.049700
     55 H5           3.5860     1.1310    -4.6640 h1         1 QLE       0.058700
     56 H61C         1.4360     2.4200    -4.6840 hc         1 QLE       0.074700
     57 H62C         2.7790     3.3310    -3.9800 hc         1 QLE       0.074700
     58 HA           2.6120    -0.9240    -3.8070 hc         1 QLE       0.069700
     59 H71C         1.1200     3.6880    -2.3820 hc         1 QLE       0.042033
     60 H72C         1.9180     2.2540    -1.7210 hc         1 QLE       0.042033
     61 H73C         0.4030     2.0880    -2.6200 hc         1 QLE       0.042033
     62 H41C         0.6010    -0.9280    -5.0510 hc         1 QLE       0.043367
     63 H42C         0.2460     0.7580    -4.6490 hc         1 QLE       0.043367
     64 H43C         1.5460     0.3740    -5.7860 hc         1 QLE       0.043367
     65 H2           0.1930    -0.0120    -2.4210 ha         1 QLE       0.149000
@<TRIPOS>BOND
     1     1     2 2
     2     2     3 1
     3     2    28 1
     4     3     4 1
     5     3     5 1
     6     5     6 1
     7     6     7 1
     8     6     8 1
     9     8     9 1
    10     8    17 1
    11     9    10 1
    12    10    11 2
    13    10    12 1
    14    12    13 1
    15    13    14 1
    16    14    15 1
    17    14    16 1
    18    17    18 1
    19    17    19 1
    20    19    20 2
    21    19    21 1
    22    21    22 1
    23    22    23 1
    24    22    25 1
    25    23    24 1
    26    25    26 1
    27    25    27 1
    28    27    28 2
    29     3    29 1
    30    28    30 1
    31     4    31 1
    32     4    32 1
    33     4    33 1
    34     5    34 1
    35     5    35 1
    36     6    36 1
    37     7    37 1
    38     7    38 1
    39     7    39 1
    40     8    40 1
    41    17    41 1
    42    12    42 1
    43    12    43 1
    44    13    44 1
    45    13    45 1
    46    15    46 1
    47    15    47 1
    48    15    48 1
    49    16    49 1
    50    16    50 1
    51    16    51 1
    52    18    52 1
    53    18    53 1
    54    18    54 1
    55    22    55 1
    56    23    56 1
    57    23    57 1
    58    25    58 1
    59    24    59 1
    60    24    60 1
    61    24    61 1
    62    26    62 1
    63    26    63 1
    64    26    64 1
    65    27    65 1
@<TRIPOS>SUBSTRUCTURE
     1 QLE         1 TEMP              0 ****  ****    0 ROOT
