@<TRIPOS>MOLECULE
QLI
   26    26     1     0     0
SMALL
bcc


@<TRIPOS>ATOM
      1 CAA          0.0000     0.0000     0.0000 c2         1 QLI      -0.362000
      2 NAB          1.2520    -1.0860    -4.6320 nz         1 QLI       0.074400
      3 OAC          1.3970    -0.0010     2.4430 o          1 QLI      -0.856300
      4 OAD          5.2650     0.6460    -4.6750 o          1 QLI      -0.860300
      5 OAE          3.2860    -0.0010     1.2750 o          1 QLI      -0.856300
      6 OAF          4.7330    -1.4770    -4.2840 o          1 QLI      -0.860300
      7 CAG          1.5120     2.0440    -3.5250 ce         1 QLI      -0.089000
      8 CAH          2.8320     1.5940    -3.9650 ce         1 QLI      -0.057000
      9 CAI          0.7460     1.2420    -2.7870 c2         1 QLI      -0.226200
     10 OAJ          2.0140     0.0010    -1.1790 os         1 QLI      -0.229900
     11 CAK          1.3340     0.0000     0.0000 ce         1 QLI       0.059900
     12 CAL          2.0710     0.0000     1.2760 c          1 QLI       0.980800
     13 CAM          4.4290    -0.1630    -4.3170 c          1 QLI       0.957800
     14 CAN          3.1370     0.2760    -3.9330 cf         1 QLI      -0.188400
     15 CAO          2.1020    -0.7240    -3.4890 c3         1 QLI      -0.026300
     16 CAP          1.2400    -0.1190    -2.3740 c3         1 QLI       0.194300
     17 HAA         -0.5420     0.0000    -0.9380 ha         1 QLI       0.098000
     18 HAAA        -0.5420    -0.0010     0.9380 ha         1 QLI       0.098000
     19 HNAB         0.7630    -0.2740    -4.9540 hn         1 QLI       0.210467
     20 HNAA         1.8220    -1.4460    -5.3710 hn         1 QLI       0.210467
     21 HAG          1.1700     3.0420    -3.7730 ha         1 QLI       0.101000
     22 HAH          3.5290     2.3000    -4.3990 ha         1 QLI       0.145000
     23 HAI         -0.2400     1.5700    -2.4820 ha         1 QLI       0.117000
     24 HAO          2.6000    -1.6100    -3.1130 hx         1 QLI       0.139700
     25 HAP          0.3900    -0.7650    -2.1910 h1         1 QLI       0.015700
     26 HAB3         0.5910    -1.7820    -4.3490 hn         1 QLI       0.210467
@<TRIPOS>BOND
     1     1    11 2   
     2     1    17 1   
     3     1    18 1   
     4     2    15 1   
     5     2    19 1   
     6     2    20 1   
     7     2    26 1   
     8     3    12 1   
     9     4    13 1   
    10     5    12 1   
    11     6    13 1   
    12     7     8 1   
    13     7     9 2   
    14     7    21 1   
    15     8    14 2   
    16     8    22 1   
    17     9    16 1   
    18     9    23 1   
    19    10    11 1   
    20    10    16 1   
    21    11    12 1   
    22    13    14 1   
    23    14    15 1   
    24    15    16 1   
    25    15    24 1   
    26    16    25 1   
@<TRIPOS>SUBSTRUCTURE
     1 QLI         1 TEMP              0 ****  ****    0 ROOT
