@<TRIPOS>MOLECULE
molecule
   26    26     1     0     0
SMALL
bcc


@<TRIPOS>ATOM
      1 CAA          0.0000     0.0000     0.0000 c2         1 QLI      -0.379000
      2 NAB          1.2520    -1.0860    -4.6320 nz         1 QLI      -0.798600
      3 OAC          1.3970    -0.0010     2.4430 o          1 QLI      -0.799800
      4 OAD          5.2650     0.6460    -4.6750 o          1 QLI      -0.819300
      5 OAE          3.2860    -0.0010     1.2750 o          1 QLI      -0.799800
      6 OAF          4.7480    -1.4710    -4.2350 o          1 QLI      -0.819300
      7 CAG          1.5120     2.0440    -3.5250 ce         1 QLI      -0.133000
      8 CAH          2.8320     1.5940    -3.9650 ce         1 QLI      -0.082000
      9 CAI          0.7460     1.2420    -2.7870 c2         1 QLI      -0.225200
     10 OAJ          2.0140     0.0010    -1.1790 os         1 QLI      -0.259900
     11 CAK          1.3340     0.0000     0.0000 ce         1 QLI       0.052900
     12 CAL          2.0710     0.0000     1.2760 c          1 QLI       0.895800
     13 CAM          4.4290    -0.1630    -4.3170 c          1 QLI       0.867800
     14 CAN          3.1370     0.2760    -3.9330 cf         1 QLI      -0.177400
     15 CAO          2.1020    -0.7240    -3.4890 c3         1 QLI       0.147700
     16 CAP          1.2400    -0.1190    -2.3740 c3         1 QLI       0.154300
     17 HAA         -0.5420    -0.0000     0.9380 ha         1 QLI       0.109000
     18 HAAA        -0.5420     0.0010    -0.9380 ha         1 QLI       0.109000
     19 HNAB         0.7630    -0.2740    -4.9540 hn         1 QLI       0.438133
     20 HNAA         0.5920    -1.7830    -4.3490 hn         1 QLI       0.438133
     21 HAG          1.1700     3.0420    -3.7720 ha         1 QLI       0.128000
     22 HAH          3.5290     2.3010    -4.3980 ha         1 QLI       0.175000
     23 HAI         -0.2410     1.5700    -2.4830 ha         1 QLI       0.136000
     24 HAO          2.6000    -1.6100    -3.1130 hx         1 QLI       0.165700
     25 HAP          0.3900    -0.7650    -2.1910 h1         1 QLI       0.038700
     26 HAB3         1.8220    -1.4470    -5.3700 hn         1 QLI       0.438133
@<TRIPOS>BOND
     1     2    15 1
     2     3    12 1
     3     4    13 1
     4     5    12 1
     5     7     8 1
     6     9     7 2
     7    10    16 1
     8    11     1 2
     9    11    10 1
    10    12    11 1
    11    13     6 1
    12    14     8 2
    13    14    13 1
    14    15    14 1
    15    16     9 1
    16    16    15 1
    17     1    17 1
    18     1    18 1
    19     2    19 1
    20     2    20 1
    21     7    21 1
    22     8    22 1
    23     9    23 1
    24    15    24 1
    25    16    25 1
    26    26     2 1
@<TRIPOS>SUBSTRUCTURE
     1 QLI         1 TEMP              0 ****  ****    0 ROOT
