@<TRIPOS>MOLECULE
QLP
   42    42     1     0     0
SMALL
bcc


@<TRIPOS>ATOM
      1 O           0.0610   -0.1060    2.9050 o         1 QLP     -0.858800
      2 C           0.6710    0.6180    2.0670 c         1 QLP      0.923600
      3 OXT         0.2630    1.7760    1.7450 o         1 QLP     -0.858800
      4 CA          1.9940    0.0540    1.4600 c3        1 QLP      0.054500
      5 CB          2.9550    1.2140    1.1500 c3        1 QLP     -0.070400
      6 CG          3.5790    1.7720    2.4180 c3        1 QLP     -0.141400
      7 CD          3.4390    3.2780    2.5240 c         1 QLP      0.652100
      8 NE2         2.1790    3.7980    2.6550 n         1 QLP     -0.662000
      9 OE1         4.4410    4.0380    2.5550 o         1 QLP     -0.705100
     10 N           1.7230   -0.7610    0.2780 n3        1 QLP     -0.798200
     11 C4A         1.1220   -2.0500    0.5570 c3        1 QLP      0.197100
     12 C4          2.0190   -3.1370    1.0820 ca        1 QLP     -0.191300
     13 C5          2.7850   -3.9440    0.2360 ca        1 QLP     -0.142600
     14 C5A         2.8990   -3.7810   -1.2640 c3        1 QLP      0.245700
     15 O4P         2.7950   -4.9750   -1.9310 os        1 QLP     -0.563200
     16 P           4.2350   -5.5340   -2.7250 p5        1 QLP      1.316900
     17 O3P         3.6960   -6.4630   -3.7750 o         1 QLP     -0.926500
     18 O2P         4.9620   -6.1830   -1.5710 o         1 QLP     -0.926500
     19 O1P         4.8460   -4.2480   -3.2160 o         1 QLP     -0.926500
     20 C6          3.5490   -5.0040    0.8120 ca        1 QLP      0.356200
     21 N1          3.5910   -5.2710    2.1160 nb        1 QLP     -0.682000
     22 C2          2.8620   -4.4820    2.9540 ca        1 QLP      0.293600
     23 C2A         2.8770   -4.7450    4.4220 c3        1 QLP     -0.103400
     24 C3          2.0700   -3.4130    2.4720 ca        1 QLP      0.007800
     25 O3          1.3690   -2.7210    3.4330 oh        1 QLP     -0.554100
     26 HA          2.4720   -0.5790    2.2720 h1        1 QLP      0.017700
     27 HB1         2.3760    2.0020    0.6010 hc        1 QLP      0.049200
     28 HB2         3.7800    0.8700    0.4710 hc        1 QLP      0.049200
     29 HG1         4.6730    1.5290    2.4480 hc        1 QLP      0.064200
     30 HG2         3.1000    1.3080    3.3230 hc        1 QLP      0.064200
     31 HE21        1.3880    3.2040    2.4730 hn        1 QLP      0.321500
     32 HE22        2.0600    4.7750    2.5750 hn        1 QLP      0.321500
     33 HN          2.5760   -0.8990   -0.2380 hn        1 QLP      0.354800
     34 H4A1        0.2580   -1.8860    1.2660 h1        1 QLP      0.063700
     35 H4A2        0.6790   -2.4040   -0.4210 h1        1 QLP      0.063700
     36 H5A1        2.0810   -3.0850   -1.6180 h1        1 QLP      0.016700
     37 H5A2        3.8970   -3.2890   -1.4810 h1        1 QLP      0.016700
     38 H6          4.1490   -5.6490    0.0880 h4        1 QLP      0.146100
     39 H2A1        1.8850   -5.1540    4.7370 hc        1 QLP      0.017367
     40 H2A2        3.6730   -5.4710    4.7160 hc        1 QLP      0.017367
     41 H2A3        3.0420   -3.7830    4.9700 hc        1 QLP      0.017367
     42 HO3         0.9920   -1.9080    3.0450 ho        1 QLP      0.464000
@<TRIPOS>BOND
     1    1    2 1   
     2    2    3 1   
     3    2    4 1   
     4    4    5 1   
     5    4   10 1   
     6    4   26 1   
     7    5    6 1   
     8    5   27 1   
     9    5   28 1   
    10    6    7 1   
    11    6   29 1   
    12    6   30 1   
    13    7    8 1   
    14    7    9 2   
    15    8   31 1   
    16    8   32 1   
    17   10   11 1   
    18   10   33 1   
    19   11   12 1   
    20   11   34 1   
    21   11   35 1   
    22   12   13 ar  
    23   12   24 ar  
    24   13   14 1   
    25   13   20 ar  
    26   14   15 1   
    27   14   36 1   
    28   14   37 1   
    29   15   16 1   
    30   16   17 1   
    31   16   18 1   
    32   16   19 1   
    33   20   21 ar  
    34   20   38 1   
    35   21   22 ar  
    36   22   23 1   
    37   22   24 ar  
    38   23   39 1   
    39   23   40 1   
    40   23   41 1   
    41   24   25 1   
    42   25   42 1   
@<TRIPOS>SUBSTRUCTURE
     1 QLP         1 TEMP              0 ****  ****    0 ROOT
