@<TRIPOS>MOLECULE
QLR
   50    51     1     0     0
SMALL
bcc


@<TRIPOS>ATOM
      1 N1           0.0000     0.0000     0.0000 nb         1 QLR      -0.725000
      2 C2           1.3260     0.0000     0.0000 ca         1 QLR       0.753900
      3 N3           2.0280     0.0000     1.1230 nb         1 QLR      -0.757000
      4 C4           1.4200     0.0020     2.3040 ca         1 QLR       0.579200
      5 C5           0.0110     0.0040     2.3430 ca         1 QLR      -0.322600
      6 C6          -0.6820     0.0020     1.1330 ca         1 QLR       0.507600
      7 CAB         -6.3390     2.7320     6.7560 c3         1 QLR       0.286700
      8 CAC         -5.7710    -3.3400     3.7250 c3         1 QLR       0.286700
      9 CAD         -7.9360     0.0240     2.6570 c3         1 QLR       0.251700
     10 CAE         -2.1890     0.0040     1.1170 c3         1 QLR      -0.055400
     11 NAF          1.9960    -0.0020    -1.2100 nv         1 QLR      -0.531500
     12 NAG          2.1570     0.0020     3.4740 nv         1 QLR      -0.514500
     13 CAH         -0.6890     0.0060     3.5930 cg         1 QLR      -0.064000
     14 CAI         -1.2480     0.0200     4.6250 c1         1 QLR      -0.155100
     15 CAJ         -4.6310     0.6450     5.8380 ca         1 QLR      -0.164000
     16 CAK         -3.9020    -1.0960     4.6380 ca         1 QLR      -0.164000
     17 CAL         -2.0060    -1.1580     6.6420 c3         1 QLR      -0.034400
     18 CAU         -3.7930    -0.1470     5.4610 ca         1 QLR      -0.065300
     19 CAW         -6.0020     0.5800     5.3250 ca         1 QLR       0.112100
     20 CAX         -5.2200    -1.2980     4.0300 ca         1 QLR       0.112100
     21 CAY         -6.4810    -0.1930     4.5240 ca         1 QLR       0.075100
     22 CAZ         -2.0590     0.0210     5.8150 c3         1 QLR       0.121700
     23 HAA         -0.3840    -1.1590     8.3160 hc         1 QLR       0.000367
     24 HAAA         0.3050    -1.4510     6.7130 hc         1 QLR       0.000367
     25 HAAB        -0.1780     0.1840     7.1830 hc         1 QLR       0.000367
     26 HAB         -7.1710     3.3970     6.9520 h1         1 QLR      -0.019800
     27 HABA        -5.5790     3.2610     6.1940 h1         1 QLR      -0.019800
     28 HABB        -5.9210     2.3900     7.6950 h1         1 QLR      -0.019800
     29 HAC         -6.4310    -3.9650     3.1370 h1         1 QLR      -0.019800
     30 HACA        -6.1210    -3.3090     4.7500 h1         1 QLR      -0.019800
     31 HACB        -4.7680    -3.7490     3.6990 h1         1 QLR      -0.019800
     32 HAD         -7.0320     0.4460     2.2340 h1         1 QLR      -0.003300
     33 HADA        -8.2950    -0.7750     2.0210 h1         1 QLR      -0.003300
     34 HADB        -8.6940     0.7950     2.7310 h1         1 QLR      -0.003300
     35 HAE         -2.5500    -1.0080     0.9730 hc         1 QLR       0.022033
     36 HAEA        -2.5600     0.3890     2.0590 hc         1 QLR       0.022033
     37 HAEB        -2.5410     0.6310     0.3060 hc         1 QLR       0.022033
     38 HNAF         2.8430     0.5210    -1.3140 hn         1 QLR       0.274800
     39 HNAA         1.6450    -0.5420    -1.9750 hn         1 QLR       0.274800
     40 HNAG         3.1110    -0.3010     3.4640 hn         1 QLR       0.275300
     41 HNAB         1.7410     0.3170     4.3280 hn         1 QLR       0.275300
     42 HAJ         -4.3620     1.4070     6.5600 ha         1 QLR       0.131500
     43 HAK         -3.0590    -1.7310     4.3960 ha         1 QLR       0.131500
     44 HAL         -2.0480    -2.0660     6.0540 hc         1 QLR       0.035200
     45 HALA        -2.7590    -1.1370     7.4220 hc         1 QLR       0.035200
     46 HAZ         -1.8760     0.9110     6.4050 hc         1 QLR       0.038700
     47 OAO         -6.7750     1.6510     5.8450 os         1 QLR      -0.323900
     48 CAA         -0.4170    -0.8690     7.2730 c3         1 QLR      -0.010100
     49 OAP         -5.6970    -2.2410     3.2190 os         1 QLR      -0.323900
     50 OAQ         -7.6420    -0.5260     3.9980 os         1 QLR      -0.282900
@<TRIPOS>BOND
     1     1     2 ar  
     2     1     6 ar  
     3     2     3 ar  
     4     2    11 1   
     5     3     4 ar  
     6     4     5 ar  
     7     4    12 1   
     8     5     6 ar  
     9     5    13 1   
    10     6    10 1   
    11     7    26 1   
    12     7    27 1   
    13     7    28 1   
    14     7    47 1   
    15     8    29 1   
    16     8    30 1   
    17     8    31 1   
    18     8    49 1   
    19     9    32 1   
    20     9    33 1   
    21     9    34 1   
    22     9    50 1   
    23    10    35 1   
    24    10    36 1   
    25    10    37 1   
    26    11    38 1   
    27    11    39 1   
    28    12    40 1   
    29    12    41 1   
    30    13    14 3   
    31    14    22 1   
    32    15    18 ar  
    33    15    19 ar  
    34    15    42 1   
    35    16    18 ar  
    36    16    20 ar  
    37    16    43 1   
    38    17    22 1   
    39    17    44 1   
    40    17    45 1   
    41    17    48 1   
    42    18    22 1   
    43    19    21 ar  
    44    19    47 1   
    45    20    21 ar  
    46    20    49 1   
    47    21    50 1   
    48    22    46 1   
    49    23    48 1   
    50    24    48 1   
    51    25    48 1   
@<TRIPOS>SUBSTRUCTURE
     1 QLR         1 TEMP              0 ****  ****    0 ROOT
