@<TRIPOS>MOLECULE
QLW
   49    51     1     0     0
SMALL
bcc


@<TRIPOS>ATOM
      1 CAA          0.0000     0.0000     0.0000 c3         1 QLW       0.005600
      2 NAW          1.4650     0.0000     0.0000 nh         1 QLW       0.103900
      3 CAB          2.1980     0.0000     1.2690 c3         1 QLW       0.005600
      4 CAV          2.1620    -0.0000    -1.2060 cc         1 QLW       0.252900
      5 CAM          1.4830     0.0000    -2.4240 cc         1 QLW      -0.246100
      6 CAO          2.2080     0.0010    -3.5960 cd         1 QLW      -0.080000
      7 CAL          3.5560     0.0060    -1.2270 cc         1 QLW      -0.246100
      8 CAN          4.2070     0.0070    -2.4430 cd         1 QLW      -0.080000
      9 NAX          3.5280     0.0020    -3.5740 na         1 QLW       0.186800
     10 CAR          4.2600     0.0030    -4.8430 c3         1 QLW       0.144100
     11 CAU          4.5110     1.4230    -5.2780 ca         1 QLW      -0.190300
     12 CAK          5.6630     2.0760    -4.8780 ca         1 QLW      -0.073000
     13 CAI          5.8920     3.3800    -5.2770 ca         1 QLW      -0.085000
     14 CAJ          3.5920     2.0730    -6.0800 ca         1 QLW      -0.073000
     15 CAH          3.8210     3.3770    -6.4780 ca         1 QLW      -0.085000
     16 CAT          4.9710     4.0310    -6.0750 ca         1 QLW      -0.042300
     17 CAQ          5.2210     5.4510    -6.5090 c3         1 QLW       0.018900
     18 CAP          5.9870     5.4530    -7.8340 c3         1 QLW       0.040900
     19 CAS          6.2370     6.8740    -8.2680 ca         1 QLW      -0.107300
     20 CAF          7.3890     7.5270    -7.8680 ca         1 QLW      -0.097000
     21 CAD          7.6180     8.8300    -8.2660 ca         1 QLW      -0.093000
     22 CAC          6.6970     9.4820    -9.0640 ca         1 QLW      -0.093000
     23 CAE          5.5460     8.8290    -9.4650 ca         1 QLW      -0.093000
     24 CAG          5.3180     7.5240    -9.0710 ca         1 QLW      -0.097000
     25 HAA1        -0.3610     0.8840    -0.5110 h1         1 QLW       0.029700
     26 HAA2        -0.3610    -0.8850    -0.5100 h1         1 QLW       0.029700
     27 HAA3        -0.3610     0.0000     1.0210 h1         1 QLW       0.029700
     28 HAB1         2.8250    -0.8820     1.3240 h1         1 QLW       0.029700
     29 HAB2         2.8170     0.8870     1.3280 h1         1 QLW       0.029700
     30 HAB3         1.4950    -0.0050     2.0920 h1         1 QLW       0.029700
     31 HAM          0.4000     0.0000    -2.4490 ha         1 QLW       0.156000
     32 HAL          4.1200     0.0110    -0.3020 ha         1 QLW       0.156000
     33 HAO          1.6880    -0.0010    -4.5470 h4         1 QLW       0.163000
     34 HAN          5.2900     0.0090    -2.4690 h4         1 QLW       0.163000
     35 HAR1         5.2070    -0.5070    -4.7140 h1         1 QLW       0.062700
     36 HAR2         3.6750    -0.5080    -5.5980 h1         1 QLW       0.062700
     37 HAK          6.3850     1.5660    -4.2530 ha         1 QLW       0.103000
     38 HAJ          2.6910     1.5610    -6.3960 ha         1 QLW       0.103000
     39 HAI          6.7940     3.8910    -4.9630 ha         1 QLW       0.123000
     40 HAH          3.1000     3.8870    -7.1050 ha         1 QLW       0.123000
     41 HAQ1         5.8060     5.9620    -5.7530 hc         1 QLW       0.030700
     42 HAQ2         4.2740     5.9610    -6.6390 hc         1 QLW       0.030700
     43 HAP1         6.9340     4.9430    -7.7040 hc         1 QLW       0.020700
     44 HAP2         5.4020     4.9420    -8.5890 hc         1 QLW       0.020700
     45 HAF          8.1110     7.0170    -7.2420 ha         1 QLW       0.103000
     46 HAG          4.4160     7.0130    -9.3860 ha         1 QLW       0.103000
     47 HAD          8.5200     9.3420    -7.9520 ha         1 QLW       0.107000
     48 HAC          6.8760    10.5040    -9.3740 ha         1 QLW       0.108000
     49 HAE          4.8250     9.3390   -10.0920 ha         1 QLW       0.107000
@<TRIPOS>BOND
     1     1     2 1   
     2     1    25 1   
     3     1    26 1   
     4     1    27 1   
     5     2     3 1   
     6     2     4 2   
     7     3    28 1   
     8     3    29 1   
     9     3    30 1   
    10     4     5 1   
    11     4     7 1   
    12     5     6 2   
    13     5    31 1   
    14     6     9 1   
    15     6    33 1   
    16     7     8 2   
    17     7    32 1   
    18     8     9 1   
    19     8    34 1   
    20     9    10 1   
    21    10    11 1   
    22    10    35 1   
    23    10    36 1   
    24    11    12 ar  
    25    11    14 ar  
    26    12    13 ar  
    27    12    37 1   
    28    13    16 ar  
    29    13    39 1   
    30    14    15 ar  
    31    14    38 1   
    32    15    16 ar  
    33    15    40 1   
    34    16    17 1   
    35    17    18 1   
    36    17    41 1   
    37    17    42 1   
    38    18    19 1   
    39    18    43 1   
    40    18    44 1   
    41    19    20 ar  
    42    19    24 ar  
    43    20    21 ar  
    44    20    45 1   
    45    21    22 ar  
    46    21    47 1   
    47    22    23 ar  
    48    22    48 1   
    49    23    24 ar  
    50    23    49 1   
    51    24    46 1   
@<TRIPOS>SUBSTRUCTURE
     1 QLW         1 TEMP              0 ****  ****    0 ROOT
