@<TRIPOS>MOLECULE
molecule
   46    47     1     0     0
SMALL
bcc


@<TRIPOS>ATOM
      1 N1           0.0000     0.0000     0.0000 nb         1 QLZ      -0.825000
      2 C2           1.3260     0.0000     0.0000 ca         1 QLZ       0.991900
      3 N3           2.0270     0.0000     1.1250 nb         1 QLZ      -0.810000
      4 C4           1.4290    -0.0000     2.3040 ca         1 QLZ       0.561600
      5 C5           0.0350    -0.0000     2.3570 ca         1 QLZ      -0.317600
      6 C6          -0.6790    -0.0000     1.1420 ca         1 QLZ       0.766200
      7 CAA          3.3420     1.4390     5.2920 c3         1 QLZ      -0.089100
      8 CAB         -6.8460     3.6140     6.5340 c3         1 QLZ       0.128700
      9 CAC         -4.2350    -2.7160     5.1290 c3         1 QLZ       0.077700
     10 NAD          1.9950     0.0000    -1.2100 nv         1 QLZ      -0.965500
     11 NAE         -2.0610    -0.0010     1.1370 nv         1 QLZ      -0.989500
     12 CAF         -1.2350    -0.0090     4.6330 c1         1 QLZ      -0.119100
     13 CAG         -0.6540    -0.0020     3.6130 cg         1 QLZ      -0.143000
     14 CAH         -5.7770     1.2810     5.5570 ca         1 QLZ      -0.252000
     15 CAI         -5.2500    -0.0880     5.1810 ca         1 QLZ      -0.047000
     16 CAJ         -3.8330     2.1910     4.7000 ca         1 QLZ      -0.113000
     17 CAK          2.5170     1.4410     4.0030 c3         1 QLZ      -0.097400
     18 CAL         -1.5560    -0.1040     6.1080 c3         1 QLZ       0.097000
     19 CAM          2.2410    -0.0020     3.5730 c3         1 QLZ      -0.172700
     20 CAT         -4.9560     2.1960     5.6420 ca         1 QLZ       0.184100
     21 CAU         -3.2130     0.7720     5.0830 ca         1 QLZ      -0.084300
     22 CAW         -3.8680    -0.2410     4.9530 ca         1 QLZ       0.006100
     23 HAA          3.9520     2.3340     5.3360 hc         1 QLZ       0.030700
     24 HAAA         3.8640     0.5640     5.6580 hc         1 QLZ       0.030700
     25 HAAB         2.5950     1.5300     6.0720 hc         1 QLZ       0.030700
     26 HAB         -7.3560     2.7120     6.2190 h1         1 QLZ       0.068700
     27 HABA        -6.9060     4.5970     6.0810 h1         1 QLZ       0.068700
     28 HABB        -6.7530     3.5230     7.6090 h1         1 QLZ       0.068700
     29 HAC         -4.0700    -3.3490     5.9920 h1         1 QLZ       0.055367
     30 HACA        -5.2270    -2.3140     4.9610 h1         1 QLZ       0.055367
     31 HACB        -3.4300    -3.1500     4.5490 h1         1 QLZ       0.055367
     32 HNAD         1.6440    -0.0980    -2.1420 hn         1 QLZ       0.419300
     33 HNAA         2.9120    -0.3670    -1.3760 hn         1 QLZ       0.419300
     34 HNAE        -2.4110     0.8680     0.7840 hn         1 QLZ       0.422800
     35 HNAB        -2.6930    -0.3860     1.8110 hn         1 QLZ       0.422800
     36 HAH         -6.8360     1.2410     5.7790 ha         1 QLZ       0.149000
     37 HAI         -5.8960    -0.9530     5.0890 ha         1 QLZ       0.141000
     38 HAJ         -2.9200     2.7720     4.6520 ha         1 QLZ       0.148000
     39 HAK          1.4400     1.3770     4.1060 hc         1 QLZ       0.083200
     40 HAKA         3.0670     1.9480     3.2190 hc         1 QLZ       0.083200
     41 HAL         -1.4590    -1.0100     6.6930 hc         1 QLZ       0.086200
     42 HALA        -1.0380     0.6650     6.6690 hc         1 QLZ       0.086200
     43 HAM          1.9650    -0.5210     4.4830 hc         1 QLZ       0.048700
     44 HAMA         3.1180    -0.6360     3.5280 hc         1 QLZ       0.048700
     45 OAP         -5.3790     3.4710     5.8410 os         1 QLZ      -0.391900
     46 OAQ         -3.4810    -1.6760     5.7360 os         1 QLZ      -0.417900
@<TRIPOS>BOND
     1     2     1 ar
     2     1     6 ar
     3     3     2 ar
     4    10     2 1
     5     3     4 ar
     6    19     4 1
     7     4     5 ar
     8     5    13 1
     9     5     6 ar
    10     6    11 1
    11     7    17 1
    12     7    23 1
    13     7    24 1
    14     7    25 1
    15    45     8 1
    16     8    26 1
    17     8    27 1
    18     8    28 1
    19     9    46 1
    20     9    29 1
    21     9    30 1
    22     9    31 1
    23    10    32 1
    24    10    33 1
    25    11    34 1
    26    11    35 1
    27    13    12 3
    28    12    18 1
    29    14    15 ar
    30    14    20 ar
    31    14    36 1
    32    15    22 ar
    33    15    37 1
    34    20    16 ar
    35    16    21 ar
    36    16    38 1
    37    17    19 1
    38    17    39 1
    39    17    40 1
    40    21    18 1
    41    18    41 1
    42    18    42 1
    43    19    43 1
    44    19    44 1
    45    45    20 1
    46    22    46 1
    47    22    21 ar
@<TRIPOS>SUBSTRUCTURE
     1 QLZ         1 TEMP              0 ****  ****    0 ROOT
