@<TRIPOS>MOLECULE
QLZ
   46    47     1     0     0
SMALL
bcc


@<TRIPOS>ATOM
      1 N1         -0.0130   -1.0100    0.0650 nb        1 QLZ     -0.830000
      2 C2          1.3270   -0.6950    0.1750 ca        1 QLZ      0.911900
      3 N3          1.9800   -0.3310    1.3480 nb        1 QLZ     -0.792000
      4 C4          1.2220   -0.2280    2.4580 ca        1 QLZ      0.536600
      5 C5         -0.1690   -0.4970    2.4620 ca        1 QLZ     -0.332600
      6 C6         -0.7590   -0.9170    1.2110 ca        1 QLZ      0.743200
      7 CAA         3.0160    2.0220    4.9900 c3        1 QLZ     -0.094100
      8 CAB        -7.1680   -3.2530    3.3710 c3        1 QLZ      0.113700
      9 CAC        -5.3690    1.3490    8.3200 c3        1 QLZ      0.114700
     10 NAD         2.0790   -0.6880   -1.0040 nh        1 QLZ     -0.929500
     11 NAE        -2.0880   -1.2820    1.1630 nh        1 QLZ     -0.955500
     12 CAF        -1.6510   -0.2740    4.5830 c1        1 QLZ     -0.150100
     13 CAG        -0.9580   -0.3740    3.6090 cg        1 QLZ     -0.089000
     14 CAH        -6.5550   -1.3960    5.3820 ca        1 QLZ     -0.172000
     15 CAI        -6.1800   -0.5040    6.3890 ca        1 QLZ     -0.166000
     16 CAJ        -4.2450   -1.4680    4.6060 ca        1 QLZ     -0.125000
     17 CAK         2.4010    1.6090    3.6770 c3        1 QLZ     -0.075400
     18 CAL        -2.4520   -0.1260    5.7600 c3        1 QLZ      0.055000
     19 CAM         1.9040    0.1780    3.7380 c3        1 QLZ     -0.137700
     20 CAT        -5.5890   -1.8730    4.4950 ca        1 QLZ      0.094100
     21 CAU        -3.8660   -0.5740    5.6000 ca        1 QLZ     -0.063300
     22 CAW        -4.8500   -0.0960    6.4990 ca        1 QLZ      0.089100
     23 HAA         3.3810    3.0760    4.9290 hc        1 QLZ      0.033033
     24 HAAA        2.2680    1.9560    5.8160 hc        1 QLZ      0.033033
     25 HAAB        3.8800    1.3630    5.2460 hc        1 QLZ      0.033033
     26 HAB        -7.8930   -2.4270    3.1670 h1        1 QLZ      0.043700
     27 HABA       -7.1250   -3.9610    2.5040 h1        1 QLZ      0.043700
     28 HABB       -7.4460   -3.7940    4.3080 h1        1 QLZ      0.043700
     29 HAC        -5.8640    0.5600    8.9360 h1        1 QLZ      0.044033
     30 HACA       -4.7770    2.0420    8.9720 h1        1 QLZ      0.044033
     31 HACB       -6.1260    1.9170    7.7270 h1        1 QLZ      0.044033
     32 HNAD        1.7010   -1.1800   -1.7800 hn        1 QLZ      0.427300
     33 HNAA        3.0660   -0.7110   -0.9030 hn        1 QLZ      0.427300
     34 HNAE       -2.6590   -1.0390    1.9370 hn        1 QLZ      0.438300
     35 HNAB       -2.5240   -1.4370    0.2870 hn        1 QLZ      0.438300
     36 HAH        -7.6060   -1.7080    5.3040 ha        1 QLZ      0.139000
     37 HAI        -6.9450   -0.1340    7.0860 ha        1 QLZ      0.139000
     38 HAJ        -3.5010   -1.8710    3.9010 ha        1 QLZ      0.156000
     39 HAK         1.5470    2.2920    3.4280 hc        1 QLZ      0.051200
     40 HAKA        3.1600    1.7110    2.8560 hc        1 QLZ      0.051200
     41 HAL        -2.4470    0.9590    6.0780 hc        1 QLZ      0.078700
     42 HALA       -1.9890   -0.7130    6.6060 hc        1 QLZ      0.078700
     43 HAM         1.1870    0.0640    4.5940 hc        1 QLZ      0.063200
     44 HAMA        2.7700   -0.5120    3.9310 hc        1 QLZ      0.063200
     45 OAP        -5.8420   -2.7480    3.4520 os        1 QLZ     -0.328900
     46 OAQ        -4.3840    0.7760    7.4690 os        1 QLZ     -0.330900
@<TRIPOS>BOND
     1    1    2 ar  
     2    1    6 ar  
     3    2    3 ar  
     4    2   10 1   
     5    3    4 ar  
     6    4    5 ar  
     7    4   19 1   
     8    5    6 ar  
     9    5   13 1   
    10    6   11 1   
    11    7   17 1   
    12    7   23 1   
    13    7   24 1   
    14    7   25 1   
    15    8   26 1   
    16    8   27 1   
    17    8   28 1   
    18    8   45 1   
    19    9   29 1   
    20    9   30 1   
    21    9   31 1   
    22    9   46 1   
    23   10   32 1   
    24   10   33 1   
    25   11   34 1   
    26   11   35 1   
    27   12   13 3   
    28   12   18 1   
    29   14   15 ar  
    30   14   20 ar  
    31   14   36 1   
    32   15   22 ar  
    33   15   37 1   
    34   16   20 ar  
    35   16   21 ar  
    36   16   38 1   
    37   17   19 1   
    38   17   39 1   
    39   17   40 1   
    40   18   21 1   
    41   18   41 1   
    42   18   42 1   
    43   19   43 1   
    44   19   44 1   
    45   20   45 1   
    46   21   22 ar  
    47   22   46 1   
@<TRIPOS>SUBSTRUCTURE
     1 QLZ         1 TEMP              0 ****  ****    0 ROOT
