@<TRIPOS>MOLECULE
QMI
   33    34     1     0     0
SMALL
bcc


@<TRIPOS>ATOM
      1 ClJ          0.0000     0.0000     0.0000 cl         1 QMI       0.061600
      2 CAE          1.7350     0.0000     0.0000 ca         1 QMI       0.050900
      3 CAD          2.4270     0.0000     1.1980 ca         1 QMI      -0.122500
      4 CAC          3.8100     0.0000     1.1980 ca         1 QMI       0.092100
      5 BrU          4.7560     0.0010     2.8350 br         1 QMI      -0.107100
      6 CAB          4.5030    -0.0000    -0.0000 ca         1 QMI      -0.122500
      7 CAA          3.8110    -0.0000    -1.1980 ca         1 QMI       0.050900
      8 ClI          4.6790    -0.0010    -2.7010 cl         1 QMI       0.061600
      9 CAF          2.4270    -0.0060    -1.1990 ca         1 QMI      -0.153500
     10 SAG          1.5470    -0.0130    -2.7240 sy         1 QMI       1.022200
     11 OAH          2.4750    -0.4170    -3.7220 o          1 QMI      -0.579300
     12 OAT          0.3240    -0.6960    -2.4790 o          1 QMI      -0.579300
     13 NAK          1.1450     1.5560    -3.0660 nu         1 QMI      -0.349500
     14 CAL          2.1540     2.4910    -3.3660 cc         1 QMI      -0.193700
     15 CAP          2.5470     3.5230    -2.5760 cd         1 QMI      -0.243600
     16 CAR          1.9830     3.8730    -1.2230 c3         1 QMI       0.097200
     17 NAO          3.5430     4.1820    -3.2270 na         1 QMI       0.492400
     18 CAQ          4.2590     5.3620    -2.7380 c3         1 QMI       0.025600
     19 NAN          3.7610     3.5320    -4.4480 nd         1 QMI      -0.649800
     20 CAM          2.9350     2.5190    -4.5300 cc         1 QMI       0.390600
     21 CAS          2.8390     1.5500    -5.6790 c3         1 QMI      -0.008400
     22 HAD          1.8860    -0.0180     2.1360 ha         1 QMI       0.133000
     23 HAB          5.5860     0.0000    -0.0000 ha         1 QMI       0.133000
     24 HAK          0.1830     1.8300    -3.0980 hn         1 QMI       0.339800
     25 HAR1         2.7220     3.6660    -0.4590 hc         1 QMI       0.011700
     26 HAR2         1.7260     4.9260    -1.2010 hc         1 QMI       0.011700
     27 HAR3         1.0960     3.2810    -1.0370 hc         1 QMI       0.011700
     28 HAQ1         5.0190     5.6460    -3.4550 h1         1 QMI       0.021367
     29 HAQ2         4.7260     5.1330    -1.7880 h1         1 QMI       0.021367
     30 HAQ3         3.5610     6.1810    -2.6090 h1         1 QMI       0.021367
     31 HAS1         1.8510     1.1060    -5.6960 hc         1 QMI       0.019700
     32 HAS2         3.5830     0.7720    -5.5580 hc         1 QMI       0.019700
     33 HAS3         3.0140     2.0750    -6.6100 hc         1 QMI       0.019700
@<TRIPOS>BOND
     1     1     2 1   
     2     2     3 ar  
     3     2     9 ar  
     4     3     4 ar  
     5     3    22 1   
     6     4     5 1   
     7     4     6 ar  
     8     6     7 ar  
     9     6    23 1   
    10     7     8 1   
    11     7     9 ar  
    12     9    10 1   
    13    10    11 2   
    14    10    12 2   
    15    10    13 1   
    16    13    14 1   
    17    13    24 1   
    18    14    15 2   
    19    14    20 1   
    20    15    16 1   
    21    15    17 1   
    22    16    25 1   
    23    16    26 1   
    24    16    27 1   
    25    17    18 1   
    26    17    19 1   
    27    18    28 1   
    28    18    29 1   
    29    18    30 1   
    30    19    20 2   
    31    20    21 1   
    32    21    31 1   
    33    21    32 1   
    34    21    33 1   
@<TRIPOS>SUBSTRUCTURE
     1 QMI         1 TEMP              0 ****  ****    0 ROOT
