@<TRIPOS>MOLECULE
QMN
   59    64     1     0     0
SMALL
bcc


@<TRIPOS>ATOM
      1 C1          0.5630   -0.0300    0.1380 c3        1 QMN      0.132100
      2 N2          1.6990    0.1510   -2.5790 nh        1 QMN     -0.600400
      3 C3          2.5220    0.1330   -1.4750 cc        1 QMN      0.163600
      4 C4          2.0150    0.0470   -0.1260 cc        1 QMN     -0.198300
      5 C5          3.1340    0.0580    0.7250 cd        1 QMN     -0.064300
      6 N6          4.2830    0.1460   -0.0360 na        1 QMN     -0.144100
      7 C7          3.9380    0.1960   -1.3960 cd        1 QMN     -0.241900
      8 C8         -0.2180    0.3160   -1.1060 ce        1 QMN     -0.289400
      9 C9          0.3360    0.3630   -2.3610 c2        1 QMN      0.189800
     10 C10        -0.4990    0.5970   -3.5910 c3        1 QMN     -0.059200
     11 C11        -1.7740    1.3480   -3.2780 c3        1 QMN     -0.069400
     12 C12        -2.5060    0.7200   -2.1160 c3        1 QMN     -0.182400
     13 C13        -1.6310    0.6550   -0.8930 c         1 QMN      0.593300
     14 O14        -2.1000    0.8880    0.2310 o         1 QMN     -0.554100
     15 C15         4.8410    0.3050   -2.5160 c         1 QMN      0.685700
     16 O16         4.5230    0.3830   -3.7110 o         1 QMN     -0.576000
     17 O17         6.1710    0.3260   -2.1890 os        1 QMN     -0.448900
     18 C18         7.0920    0.4360   -3.2910 c3        1 QMN      0.143400
     19 C19         8.4740    0.4350   -2.6850 c3        1 QMN     -0.102100
     20 C20         0.1690   -1.3910    0.6490 ca        1 QMN     -0.068300
     21 C21        -0.7860   -1.4850    1.6690 ca        1 QMN     -0.111000
     22 C22        -1.1360   -2.7520    2.1470 ca        1 QMN      0.095100
     23 C23        -0.5550   -3.9220    1.6490 ca        1 QMN     -0.131000
     24 C24         0.3910   -3.8090    0.6320 ca        1 QMN     -0.123000
     25 C25         0.7490   -2.5570    0.1340 ca        1 QMN     -0.120000
     26 C26        -2.4350   -5.7320    8.1570 ca        1 QMN     -0.122000
     27 C27        -1.0370   -5.7520    8.0390 ca        1 QMN     -0.146000
     28 C28        -0.3830   -5.1810    6.9550 ca        1 QMN     -0.081000
     29 C29        -3.2420   -5.1390    7.1930 ca        1 QMN     -0.127000
     30 C30        -2.6060   -4.5580    6.0940 ca        1 QMN     -0.080200
     31 C31        -1.1560   -4.5680    5.9620 ca        1 QMN      0.084400
     32 N32        -0.7760   -3.9080    4.7710 nc        1 QMN     -0.598100
     33 C33        -1.9520   -3.5220    4.2200 cd        1 QMN      0.605100
     34 N34        -3.1030   -3.9250    4.9440 na        1 QMN     -0.279300
     35 O35        -2.1880   -2.7870    3.0750 os        1 QMN     -0.316700
     36 H1          0.2900    0.7320    0.9310 hc        1 QMN      0.081700
     37 HN2         2.1030    0.3210   -3.4750 hn        1 QMN      0.468800
     38 H5          3.1710    0.0040    1.8160 h4        1 QMN      0.183000
     39 HN6         5.2150    0.1480    0.2890 hn        1 QMN      0.316700
     40 H10         0.0780    1.1660   -4.3700 hc        1 QMN      0.064700
     41 H10A       -0.7490   -0.4100   -4.0280 hc        1 QMN      0.064700
     42 H11        -1.5350    2.4180   -3.0390 hc        1 QMN      0.053700
     43 H11A       -2.4340    1.3460   -4.1850 hc        1 QMN      0.053700
     44 H12        -2.8180   -0.3280   -2.3720 hc        1 QMN      0.073200
     45 H12A       -3.4350    1.3040   -1.8830 hc        1 QMN      0.073200
     46 H18         6.8760    1.3870   -3.8450 h1        1 QMN      0.053700
     47 H18A        6.9340   -0.4350   -3.9790 h1        1 QMN      0.053700
     48 H19         8.6540   -0.5090   -2.1160 hc        1 QMN      0.048367
     49 H19A        8.5980    1.2960   -1.9850 hc        1 QMN      0.048367
     50 H19B        9.2290    0.5180   -3.5030 hc        1 QMN      0.048367
     51 H21        -1.2780   -0.5820    2.0650 ha        1 QMN      0.170000
     52 H23        -0.8320   -4.9030    2.0620 ha        1 QMN      0.150000
     53 H24         0.8600   -4.7160    0.2230 ha        1 QMN      0.135000
     54 H25         1.4990   -2.4780   -0.6670 ha        1 QMN      0.142000
     55 H27        -0.4440   -6.2360    8.8300 ha        1 QMN      0.132000
     56 H28         0.7120   -5.2040    6.8720 ha        1 QMN      0.147000
     57 H29        -4.3350   -5.1300    7.2910 ha        1 QMN      0.136000
     58 HN34       -4.0120   -3.5710    4.8110 hn        1 QMN      0.312700
     59 H26        -2.9050   -6.1980    9.0370 ha        1 QMN      0.132000
@<TRIPOS>BOND
     1    1    4 1   
     2    1    8 1   
     3    1   20 1   
     4    1   36 1   
     5    2    3 1   
     6    2    9 1   
     7    2   37 1   
     8    3    4 1   
     9    3    7 2   
    10    4    5 2   
    11    5    6 1   
    12    5   38 1   
    13    6    7 1   
    14    6   39 1   
    15    7   15 1   
    16    8    9 2   
    17    8   13 1   
    18    9   10 1   
    19   10   11 1   
    20   10   40 1   
    21   10   41 1   
    22   11   12 1   
    23   11   42 1   
    24   11   43 1   
    25   12   13 1   
    26   12   44 1   
    27   12   45 1   
    28   13   14 2   
    29   15   16 2   
    30   15   17 1   
    31   17   18 1   
    32   18   19 1   
    33   18   46 1   
    34   18   47 1   
    35   19   48 1   
    36   19   49 1   
    37   19   50 1   
    38   20   21 ar  
    39   20   25 ar  
    40   21   22 ar  
    41   21   51 1   
    42   22   23 ar  
    43   22   35 1   
    44   23   24 ar  
    45   23   52 1   
    46   24   25 ar  
    47   24   53 1   
    48   25   54 1   
    49   26   27 ar  
    50   26   29 ar  
    51   26   59 1   
    52   27   28 ar  
    53   27   55 1   
    54   28   31 ar  
    55   28   56 1   
    56   29   30 ar  
    57   29   57 1   
    58   30   31 ar  
    59   30   34 1   
    60   31   32 1   
    61   32   33 2   
    62   33   34 1   
    63   33   35 1   
    64   34   58 1   
@<TRIPOS>SUBSTRUCTURE
     1 QMN         1 TEMP              0 ****  ****    0 ROOT
