@<TRIPOS>MOLECULE
molecule
   25    25     1     0     0
SMALL
bcc


@<TRIPOS>ATOM
      1 CAG          0.0000     0.0000     0.0000 c3         1 QMP      -0.094900
      2 CAE          1.5310     0.0000     0.0000 c3         1 QMP      -0.079400
      3 CAD          2.0410     0.0000     1.4420 c3         1 QMP      -0.081400
      4 CAF          1.5310     1.2500     2.1630 c3         1 QMP      -0.079400
      5 CAH          0.0010     1.2490     2.1640 c3         1 QMP      -0.094900
      6 CAJ         -0.5090     1.2490     0.7210 c3         1 QMP       0.242100
      7 OAI         -1.9390     1.2500     0.7210 os         1 QMP      -0.606200
      8 PAK         -2.8150     2.4190     0.0470 p5         1 QMP       1.169600
      9 CAA         -4.5820     1.9770     0.1280 c3         1 QMP      -0.280300
     10 OAC         -2.4130     2.5830    -1.3680 o          1 QMP      -0.824000
     11 OAB         -2.5690     3.7990     0.8380 o          1 QMP      -0.824000
     12 H1          -0.3600     0.0030    -1.0220 hc         1 QMP       0.048200
     13 H2          -0.3600    -0.8840     0.5130 hc         1 QMP       0.048200
     14 H3           1.8900     0.8860    -0.5090 hc         1 QMP       0.032950
     15 H4           1.8900    -0.8860    -0.5090 hc         1 QMP       0.032950
     16 H5           3.1240     0.0030     1.4410 hc         1 QMP       0.026200
     17 H6           1.6770    -0.8840     1.9530 hc         1 QMP       0.026200
     18 H7           1.8910     1.2480     3.1850 hc         1 QMP       0.032950
     19 H8           1.8900     2.1330     1.6500 hc         1 QMP       0.032950
     20 H9          -0.3590     2.1350     2.6730 hc         1 QMP       0.048200
     21 H10         -0.3580     0.3630     2.6720 hc         1 QMP       0.048200
     22 H11         -0.1440     2.1320     0.2110 h1         1 QMP       0.052700
     23 H12         -4.7540     1.0680    -0.4350 hc         1 QMP       0.040367
     24 H13         -5.1750     2.7810    -0.2930 hc         1 QMP       0.040367
     25 H14         -4.8680     1.8210     1.1620 hc         1 QMP       0.040367
@<TRIPOS>BOND
     1     9     8 1
     2    10     8 1
     3     8     7 1
     4     8    11 1
     5     1     6 1
     6     1     2 1
     7     7     6 1
     8     6     5 1
     9     2     3 1
    10     3     4 1
    11     5     4 1
    12     1    12 1
    13     1    13 1
    14     2    14 1
    15     2    15 1
    16     3    16 1
    17     3    17 1
    18     4    18 1
    19     4    19 1
    20     5    20 1
    21     5    21 1
    22     6    22 1
    23     9    23 1
    24     9    24 1
    25     9    25 1
@<TRIPOS>SUBSTRUCTURE
     1 QMP         1 TEMP              0 ****  ****    0 ROOT
