@<TRIPOS>MOLECULE
QMP
   25    25     1     0     0
SMALL
bcc


@<TRIPOS>ATOM
      1 CAG        -0.0400   -0.0090    0.0110 c3        1 QMP     -0.099400
      2 CAE         1.4730   -0.0290    0.0510 c3        1 QMP     -0.071400
      3 CAD         1.9920    0.0680    1.4710 c3        1 QMP     -0.072400
      4 CAF         1.4450    1.2980    2.1660 c3        1 QMP     -0.071400
      5 CAH        -0.0670    1.3250    2.1370 c3        1 QMP     -0.099400
      6 CAJ        -0.5960    1.2440    0.7000 c3        1 QMP      0.220100
      7 OAI        -1.9870    1.1880    0.7160 os        1 QMP     -0.588200
      8 PAK        -2.7530    2.4520   -0.0800 p5        1 QMP      1.341600
      9 CAA        -4.3530    1.9780    0.1620 c3        1 QMP     -0.365300
     10 OAC        -2.3660    2.3160   -1.5030 o         1 QMP     -0.867000
     11 OAB        -2.4320    3.6680    0.7040 o         1 QMP     -0.867000
     12 H1         -0.4520   -0.9160    0.5210 hc        1 QMP      0.046450
     13 H2         -0.3960   -0.0240   -1.0510 hc        1 QMP      0.046450
     14 H3          1.8710    0.8300   -0.5500 hc        1 QMP      0.025200
     15 H4          1.8500   -0.9730   -0.4220 hc        1 QMP      0.025200
     16 H5          3.1130    0.1030    1.4630 hc        1 QMP      0.019200
     17 H6          1.6880   -0.8490    2.0420 hc        1 QMP      0.019200
     18 H7          1.8430    2.2170    1.6600 hc        1 QMP      0.025200
     19 H8          1.8040    1.3180    3.2280 hc        1 QMP      0.025200
     20 H9         -0.4800    0.4660    2.7240 hc        1 QMP      0.046450
     21 H10        -0.4430    2.2710    2.6070 hc        1 QMP      0.046450
     22 H11        -0.2550    2.1590    0.1300 h1        1 QMP      0.036700
     23 H12        -4.4120    1.0320    0.7450 hc        1 QMP      0.058367
     24 H13        -4.8700    1.8080   -0.8080 hc        1 QMP      0.058367
     25 H14        -4.9180    2.7540    0.7250 hc        1 QMP      0.058367
@<TRIPOS>BOND
     1    1    2 1   
     2    1    6 1   
     3    1   12 1   
     4    1   13 1   
     5    2    3 1   
     6    2   14 1   
     7    2   15 1   
     8    3    4 1   
     9    3   16 1   
    10    3   17 1   
    11    4    5 1   
    12    4   18 1   
    13    4   19 1   
    14    5    6 1   
    15    5   20 1   
    16    5   21 1   
    17    6    7 1   
    18    6   22 1   
    19    7    8 1   
    20    8    9 1   
    21    8   10 1   
    22    8   11 1   
    23    9   23 1   
    24    9   24 1   
    25    9   25 1   
@<TRIPOS>SUBSTRUCTURE
     1 QMP         1 TEMP              0 ****  ****    0 ROOT
