@<TRIPOS>MOLECULE
QMQ
   71    75     1     0     0
SMALL
bcc


@<TRIPOS>ATOM
      1 CAA          0.0000     0.0000     0.0000 c3         1 QMQ       0.004600
      2 NBI          1.4640     0.0000     0.0000 nh         1 QMQ       0.105900
      3 CAB          2.1970     0.0000     1.2690 c3         1 QMQ       0.004600
      4 CBE          2.1610    -0.0010    -1.2050 cc         1 QMQ       0.252900
      5 CAM          1.4810    -0.0010    -2.4230 cc         1 QMQ      -0.246100
      6 CAP          2.2080    -0.0010    -3.5960 cd         1 QMQ      -0.079000
      7 CAL          3.5550     0.0050    -1.2260 cc         1 QMQ      -0.246100
      8 CAO          4.2080     0.0050    -2.4410 cd         1 QMQ      -0.079000
      9 NBK          3.5280    -0.0010    -3.5730 na         1 QMQ       0.184800
     10 CAW          4.2610    -0.0010    -4.8420 c3         1 QMQ       0.144100
     11 CBD          4.5120     1.4200    -5.2770 ca         1 QMQ      -0.189300
     12 CAK          5.6640     2.0710    -4.8780 ca         1 QMQ      -0.073000
     13 CAG          5.8940     3.3750    -5.2780 ca         1 QMQ      -0.084500
     14 CAJ          3.5930     2.0690    -6.0800 ca         1 QMQ      -0.073000
     15 CAF          3.8230     3.3720    -6.4790 ca         1 QMQ      -0.084500
     16 CBB          4.9720     4.0260    -6.0760 ca         1 QMQ      -0.042300
     17 CAU          5.2230     5.4470    -6.5110 c3         1 QMQ       0.018900
     18 CAS          5.9890     5.4470    -7.8360 c3         1 QMQ      -0.024400
     19 CAR          6.2430     6.8890    -8.2770 c3         1 QMQ      -0.026400
     20 CAT          7.0090     6.8900    -9.6020 c3         1 QMQ       0.031900
     21 CBA          7.2600     8.3110   -10.0370 ca         1 QMQ      -0.086300
     22 CAE          8.4110     8.9630    -9.6370 ca         1 QMQ      -0.099500
     23 CAI          8.6420    10.2660   -10.0360 ca         1 QMQ      -0.071500
     24 CAD          6.3410     8.9600   -10.8400 ca         1 QMQ      -0.099500
     25 CAH          6.5710    10.2630   -11.2400 ca         1 QMQ      -0.071500
     26 CBC          7.7210    10.9170   -10.8350 ca         1 QMQ      -0.136300
     27 CAV          7.9710    12.3390   -11.2700 c3         1 QMQ       0.031600
     28 N9           8.7050    12.3400   -12.5380 na         1 QMQ       0.213000
     29 C8          10.0570    12.4350   -12.6870 cc         1 QMQ       0.232700
     30 N7          10.3670    12.4050   -13.9500 nd         1 QMQ      -0.487100
     31 C5           9.2380    12.2860   -14.6900 ca         1 QMQ      -0.248200
     32 C4           8.1580    12.2370   -13.7920 ca         1 QMQ       0.272800
     33 N3           6.9250    12.1150   -14.2710 nb         1 QMQ      -0.696000
     34 C2           6.7140    12.0370   -15.5680 ca         1 QMQ       0.696900
     35 N1           7.6950    12.0760   -16.4500 nb         1 QMQ      -0.745000
     36 C6           8.9610    12.2060   -16.0650 ca         1 QMQ       0.595200
     37 N6           9.9840    12.2430   -16.9960 nv         1 QMQ      -0.475500
     38 HAA1        -0.3610    -0.8850    -0.5100 h1         1 QMQ       0.029700
     39 HAA2        -0.3610     0.0010     1.0210 h1         1 QMQ       0.029700
     40 HAA3        -0.3610     0.8840    -0.5120 h1         1 QMQ       0.029700
     41 HAB1         2.8170     0.8860     1.3290 h1         1 QMQ       0.029700
     42 HAB2         2.8230    -0.8830     1.3250 h1         1 QMQ       0.029700
     43 HAB3         1.4930    -0.0040     2.0930 h1         1 QMQ       0.029700
     44 HAM          0.3980    -0.0010    -2.4480 ha         1 QMQ       0.156000
     45 HAL          4.1180     0.0100    -0.3010 ha         1 QMQ       0.156000
     46 HAP          1.6890    -0.0040    -4.5460 h4         1 QMQ       0.163000
     47 HAO          5.2910     0.0070    -2.4670 h4         1 QMQ       0.163000
     48 HAW1         3.6750    -0.5120    -5.5970 h1         1 QMQ       0.062700
     49 HAW2         5.2070    -0.5120    -4.7130 h1         1 QMQ       0.062700
     50 HAK          6.3860     1.5600    -4.2530 ha         1 QMQ       0.103000
     51 HAJ          2.6920     1.5570    -6.3960 ha         1 QMQ       0.103000
     52 HAG          6.7960     3.8870    -4.9630 ha         1 QMQ       0.123000
     53 HAF          3.1020     3.8810    -7.1070 ha         1 QMQ       0.123000
     54 HAU1         4.2770     5.9570    -6.6410 hc         1 QMQ       0.027700
     55 HAU2         5.8080     5.9570    -5.7560 hc         1 QMQ       0.027700
     56 HAS1         6.9350     4.9370    -7.7060 hc         1 QMQ       0.018700
     57 HAS2         5.4040     4.9370    -8.5910 hc         1 QMQ       0.018700
     58 HAR1         6.8280     7.4000    -7.5220 hc         1 QMQ       0.020200
     59 HAR2         5.2970     7.3990    -8.4070 hc         1 QMQ       0.020200
     60 HAT1         6.4240     6.3790   -10.3570 hc         1 QMQ       0.020200
     61 HAT2         7.9550     6.3790    -9.4720 hc         1 QMQ       0.020200
     62 HAE          9.1330     8.4530    -9.0110 ha         1 QMQ       0.107000
     63 HAD          5.4410     8.4480   -11.1560 ha         1 QMQ       0.107000
     64 HAI          9.5430    10.7780    -9.7210 ha         1 QMQ       0.115500
     65 HAH          5.8500    10.7730   -11.8670 ha         1 QMQ       0.115500
     66 HAV1         7.0240    12.8480   -11.4010 h1         1 QMQ       0.041700
     67 HAV2         8.5550    12.8500   -10.5140 h1         1 QMQ       0.041700
     68 H8          10.7670    12.5240   -11.8750 h5         1 QMQ       0.030800
     69 H2           5.6970    11.9310   -15.9250 h5         1 QMQ      -0.005900
     70 H61N        10.9330    12.3380   -16.6940 hn         1 QMQ       0.277300
     71 H62N         9.7740    12.1800   -17.9730 hn         1 QMQ       0.277300
@<TRIPOS>BOND
     1     1     2 1   
     2     1    38 1   
     3     1    39 1   
     4     1    40 1   
     5     2     3 1   
     6     2     4 2   
     7     3    41 1   
     8     3    42 1   
     9     3    43 1   
    10     4     5 1   
    11     4     7 1   
    12     5     6 2   
    13     5    44 1   
    14     6     9 1   
    15     6    46 1   
    16     7     8 2   
    17     7    45 1   
    18     8     9 1   
    19     8    47 1   
    20     9    10 1   
    21    10    11 1   
    22    10    48 1   
    23    10    49 1   
    24    11    12 ar  
    25    11    14 ar  
    26    12    13 ar  
    27    12    50 1   
    28    13    16 ar  
    29    13    52 1   
    30    14    15 ar  
    31    14    51 1   
    32    15    16 ar  
    33    15    53 1   
    34    16    17 1   
    35    17    18 1   
    36    17    54 1   
    37    17    55 1   
    38    18    19 1   
    39    18    56 1   
    40    18    57 1   
    41    19    20 1   
    42    19    58 1   
    43    19    59 1   
    44    20    21 1   
    45    20    60 1   
    46    20    61 1   
    47    21    22 ar  
    48    21    24 ar  
    49    22    23 ar  
    50    22    62 1   
    51    23    26 ar  
    52    23    64 1   
    53    24    25 ar  
    54    24    63 1   
    55    25    26 ar  
    56    25    65 1   
    57    26    27 1   
    58    27    28 1   
    59    27    66 1   
    60    27    67 1   
    61    28    29 1   
    62    28    32 1   
    63    29    30 2   
    64    29    68 1   
    65    30    31 1   
    66    31    32 ar  
    67    31    36 ar  
    68    32    33 ar  
    69    33    34 ar  
    70    34    35 ar  
    71    34    69 1   
    72    35    36 ar  
    73    36    37 1   
    74    37    70 1   
    75    37    71 1   
@<TRIPOS>SUBSTRUCTURE
     1 QMQ         1 TEMP              0 ****  ****    0 ROOT
