@<TRIPOS>MOLECULE
molecule
   29    32     1     0     0
SMALL
bcc


@<TRIPOS>ATOM
      1 C01          0.0000     0.0000     0.0000 c3         1 QMR       0.166800
      2 N02          1.4680     0.0000     0.0000 n7         1 QMR      -0.817200
      3 C03          2.0260     0.0000     1.3580 c3         1 QMR       0.166800
      4 C04          1.4640     1.2080     2.1310 c3         1 QMR      -0.028400
      5 C05         -0.0630     0.9500     2.2830 c3         1 QMR      -0.083400
      6 C06         -0.5010     1.2080     0.8130 c3         1 QMR      -0.028400
      7 C07          0.3540     2.4020     0.4100 ca         1 QMR      -0.050800
      8 C08          0.1390     3.3680    -0.5240 ca         1 QMR      -0.152300
      9 C09          1.0940     4.3830    -0.7130 ca         1 QMR       0.305300
     10 N10          0.9110     5.3420    -1.6250 nb         1 QMR      -0.642500
     11 C11          1.8210     6.2790    -1.7760 ca         1 QMR       0.296400
     12 C12          2.9780     6.2820    -0.9950 ca         1 QMR       0.296400
     13 N13          3.1810     5.3480    -0.0930 nb         1 QMR      -0.642500
     14 C14          2.2700     4.3840     0.0800 ca         1 QMR       0.305300
     15 C15          2.4580     3.3700     1.0350 ca         1 QMR      -0.152300
     16 C16          1.5130     2.4020     1.1890 ca         1 QMR      -0.050800
     17 H011        -0.3630     0.0720    -1.0180 h1         1 QMR       0.036700
     18 H012        -0.3630    -0.9160     0.4500 h1         1 QMR       0.036700
     19 H02          1.8020    -0.8010    -0.4980 hn         1 QMR       0.358800
     20 H06         -1.5640     1.3880     0.7090 hc         1 QMR       0.072700
     21 H031         1.7480    -0.9160     1.8640 h1         1 QMR       0.036700
     22 H032         3.1060     0.0730     1.3060 h1         1 QMR       0.036700
     23 H04          1.9640     1.3860     3.0760 hc         1 QMR       0.072700
     24 H051        -0.5180     1.6600     2.9620 hc         1 QMR       0.055700
     25 H052        -0.2630    -0.0730     2.5800 hc         1 QMR       0.055700
     26 H08         -0.7980     3.3990    -1.0660 ha         1 QMR       0.147000
     27 H11          1.6720     7.0570    -2.5150 h4         1 QMR       0.028100
     28 H12          3.7170     7.0620    -1.1350 h4         1 QMR       0.028100
     29 H15          3.3090     3.4080     1.7040 ha         1 QMR       0.147000
@<TRIPOS>BOND
     1     1     2 1
     2     1     6 1
     3     2     3 1
     4     3     4 1
     5     4     5 1
     6     4    16 1
     7     5     6 1
     8     6     7 1
     9     7     8 ar
    10     7    16 ar
    11     8     9 ar
    12     9    10 ar
    13     9    14 ar
    14    10    11 ar
    15    11    12 ar
    16    12    13 ar
    17    13    14 ar
    18    14    15 ar
    19    15    16 ar
    20     1    17 1
    21     1    18 1
    22     2    19 1
    23     6    20 1
    24     3    21 1
    25     3    22 1
    26     4    23 1
    27     5    24 1
    28     5    25 1
    29     8    26 1
    30    11    27 1
    31    12    28 1
    32    15    29 1
@<TRIPOS>SUBSTRUCTURE
     1 QMR         1 TEMP              0 ****  ****    0 ROOT
