@<TRIPOS>MOLECULE
QMS
   25    26     1     0     0
SMALL
bcc


@<TRIPOS>ATOM
      1 O2           0.0000     0.0000     0.0000 o          1 QMS      -0.581800
      2 S1           1.4210     0.0000     0.0000 s6         1 QMS       0.949900
      3 O1           2.1770     0.0000     1.2040 o          1 QMS      -0.581800
      4 C7           2.0900    -1.1760    -1.2090 c3         1 QMS       0.014700
      5 N1           1.7880     1.4730    -0.6630 nu         1 QMS      -0.389500
      6 C3           1.2930     1.8140    -1.9210 ca         1 QMS       0.024300
      7 C2           0.0380     1.3970    -2.3090 ca         1 QMS      -0.190000
      8 C4           2.0720     2.5920    -2.8050 ca         1 QMS       0.343600
      9 N2           3.2940     3.0070    -2.4620 nb         1 QMS      -0.573000
     10 C8           4.0240     3.7270    -3.2800 ca         1 QMS       0.406200
     11 C9           3.5660     4.0870    -4.5450 ca         1 QMS      -0.220300
     12 C10          2.3280     3.6900    -4.9610 ca         1 QMS      -0.056000
     13 C5           1.5460     2.9180    -4.0790 ca         1 QMS      -0.127300
     14 C6           0.2630     2.4750    -4.4390 ca         1 QMS      -0.116000
     15 C1          -0.4680     1.7300    -3.5630 ca         1 QMS      -0.060000
     16 H71          1.3880    -1.2930    -2.0250 h1         1 QMS       0.066700
     17 H72          3.0320    -0.8020    -1.5930 h1         1 QMS       0.066700
     18 H73          2.2510    -2.1340    -0.7300 h1         1 QMS       0.066700
     19 HN1          2.3310     2.1340    -0.1440 hn         1 QMS       0.364800
     20 H2          -0.5620     0.8040    -1.6300 ha         1 QMS       0.178000
     21 H8           5.0080     4.0490    -2.9640 h4         1 QMS      -0.021900
     22 H9           4.1920     4.6830    -5.1990 ha         1 QMS       0.112000
     23 H10          1.9560     3.9620    -5.9420 ha         1 QMS       0.112000
     24 H6          -0.1450     2.7260    -5.4100 ha         1 QMS       0.108000
     25 H1          -1.4570     1.3910    -3.8460 ha         1 QMS       0.104000
@<TRIPOS>BOND
     1     1     2 2   
     2     2     3 2   
     3     2     4 1   
     4     2     5 1   
     5     4    16 1   
     6     4    17 1   
     7     4    18 1   
     8     5     6 1   
     9     5    19 1   
    10     6     7 ar  
    11     6     8 ar  
    12     7    15 ar  
    13     7    20 1   
    14     8     9 ar  
    15     8    13 ar  
    16     9    10 ar  
    17    10    11 ar  
    18    10    21 1   
    19    11    12 ar  
    20    11    22 1   
    21    12    13 ar  
    22    12    23 1   
    23    13    14 ar  
    24    14    15 ar  
    25    14    24 1   
    26    15    25 1   
@<TRIPOS>SUBSTRUCTURE
     1 QMS         1 TEMP              0 ****  ****    0 ROOT
