@<TRIPOS>MOLECULE
QN2
   72    74     1     0     0
SMALL
bcc


@<TRIPOS>ATOM
      1 C1          1.9290   -1.5830   -0.9690 ca        1 QN2     -0.148750
      2 C17         2.3160   -1.0910    0.2650 ca        1 QN2      0.025000
      3 C26         2.0310    0.2490    0.6510 ca        1 QN2     -0.608000
      4 C19         1.3510    1.0650   -0.2940 ca        1 QN2      0.025000
      5 C3          0.9670    0.5710   -1.5280 ca        1 QN2     -0.148750
      6 C4          1.2490   -0.7570   -1.8740 ca        1 QN2      0.037000
      7 S8          2.4030    0.7660    2.0710 s4        1 QN2      1.697800
      8 N28         4.4440    1.7280    1.6790 n3        1 QN2     -0.909700
      9 C7          4.7420    2.1000    0.2830 c3        1 QN2      0.173100
     10 C12         5.8570    1.3030   -0.3210 ca        1 QN2     -0.150300
     11 C14         5.6210    0.0130   -0.8080 ca        1 QN2     -0.123750
     12 C30         6.6520   -0.7130   -1.3980 ca        1 QN2     -0.086750
     13 C31         7.9300   -0.1570   -1.5060 ca        1 QN2      0.041900
     14 I2          9.4210   -1.2100   -2.3640 i         1 QN2     -0.066900
     15 C29         8.1670    1.1300   -1.0200 ca        1 QN2     -0.086750
     16 C13         7.1350    1.8590   -0.4260 ca        1 QN2     -0.123750
     17 C23         4.6540    2.7830    2.6860 c3        1 QN2      0.128000
     18 C24         3.9450    4.1460    2.3600 c3        1 QN2      0.128000
     19 N32         2.9790    4.6320    3.3580 n3        1 QN2     -0.909700
     20 S9          0.7340    4.1900    2.7980 s4        1 QN2      1.697800
     21 O11         0.4460    3.3370    3.8140 o         1 QN2     -0.464400
     22 C27         0.2910    5.6850    2.9940 ca        1 QN2     -0.608000
     23 C18         0.2970    6.6070    1.9130 ca        1 QN2      0.025000
     24 C2         -0.1770    7.8970    2.0610 ca        1 QN2     -0.148750
     25 C6         -0.6790    8.3240    3.2990 ca        1 QN2      0.037000
     26 C5         -0.6900    7.4430    4.3850 ca        1 QN2     -0.148750
     27 C20        -0.2090    6.1520    4.2370 ca        1 QN2      0.025000
     28 O40         0.9690    3.8370    1.4960 o         1 QN2     -0.464400
     29 C33         3.2600    4.2600    4.7540 c3        1 QN2      0.173100
     30 C34         2.8620    5.3040    5.7510 ca        1 QN2     -0.150300
     31 C38         1.9220    5.0000    6.7400 ca        1 QN2     -0.123750
     32 C39         1.6190    5.9390    7.7270 ca        1 QN2     -0.086750
     33 C37         2.2400    7.1900    7.7230 ca        1 QN2      0.041900
     34 I1          1.7970    8.5460    9.1490 i         1 QN2     -0.066900
     35 C36         3.1770    7.4940    6.7320 ca        1 QN2     -0.086750
     36 C35         3.4890    6.5550    5.7510 ca        1 QN2     -0.123750
     37 C25         5.1220    5.1390    2.0800 c3        1 QN2      0.137300
     38 N22         6.3840    4.4440    2.2490 n3        1 QN2     -0.820200
     39 C21         6.1500    3.1670    2.8980 c3        1 QN2      0.137300
     40 O41         1.8310    1.9390    2.5000 o         1 QN2     -0.464400
     41 O10         2.9210   -0.1150    2.9680 o         1 QN2     -0.464400
     42 H1          2.1510   -2.6310   -1.2390 ha        1 QN2      0.187000
     43 H17         2.8450   -1.7540    0.9780 ha        1 QN2      0.174000
     44 H19         1.1200    2.1160   -0.0250 ha        1 QN2      0.174000
     45 H3          0.4330    1.2220   -2.2430 ha        1 QN2      0.187000
     46 H4          0.9360   -1.1530   -2.8580 ha        1 QN2      0.186500
     47 H71         3.7930    1.9290   -0.3060 h1        1 QN2      0.081450
     48 H72         5.0000    3.1970    0.2100 h1        1 QN2      0.081450
     49 H14         4.6150   -0.4280   -0.7390 ha        1 QN2      0.137500
     50 H30         6.4530   -1.7270   -1.7820 ha        1 QN2      0.167000
     51 H29         9.1690    1.5850   -1.1030 ha        1 QN2      0.167000
     52 H13         7.3330    2.8760   -0.0490 ha        1 QN2      0.137500
     53 H23         4.2630    2.3320    3.6460 h1        1 QN2      0.088200
     54 H24         3.3380    4.0450    1.4090 h1        1 QN2      0.088200
     55 H18         0.6740    6.2730    0.9280 ha        1 QN2      0.174000
     56 H2         -0.1700    8.5930    1.2030 ha        1 QN2      0.187000
     57 H6         -1.0670    9.3530    3.4140 ha        1 QN2      0.186500
     58 H5         -1.0860    7.7760    5.3610 ha        1 QN2      0.187000
     59 H20        -0.2120    5.4630    5.1070 ha        1 QN2      0.174000
     60 H331        2.6990    3.3000    4.9570 h1        1 QN2      0.081450
     61 H332        4.3640    4.0640    4.9030 h1        1 QN2      0.081450
     62 H38         1.4350    4.0110    6.7610 ha        1 QN2      0.137500
     63 H39         0.8930    5.6770    8.5160 ha        1 QN2      0.167000
     64 H36         3.6870    8.4730    6.7280 ha        1 QN2      0.167000
     65 H35         4.2510    6.7970    4.9940 ha        1 QN2      0.137500
     66 H251        5.0490    6.0570    2.7280 h1        1 QN2      0.071450
     67 H252        5.0630    5.4770    1.0070 h1        1 QN2      0.071450
     68 HN22        7.0660    4.9960    2.7330 hn        1 QN2      0.405800
     69 H211        6.8510    2.4170    2.4350 h1        1 QN2      0.071450
     70 H212        6.3530    3.1870    4.0060 h1        1 QN2      0.071450
     71 H281        5.0640    0.9630    1.9380 hn        1 QN2      0.412300
     72 H321        2.9780    5.6460    3.2980 hn        1 QN2      0.412300
@<TRIPOS>BOND
     1    1    2 ar
     2    1    6 ar
     3    1   42 1
     4    2    3 ar
     5    2   43 1
     6    3    4 ar
     7    3    7 1
     8    4    5 ar
     9    4   44 1
    10    5    6 ar
    11    5   45 1
    12    6   46 1
    13    7   40 1
    14    7   41 1
    15    8    9 1
    16    8   17 1
    17    8   71 1
    18    9   10 1
    19    9   47 1
    20    9   48 1
    21   10   11 ar
    22   10   16 ar
    23   11   12 ar
    24   11   49 1
    25   12   13 ar
    26   12   50 1
    27   13   14 1
    28   13   15 ar
    29   15   16 ar
    30   15   51 1
    31   16   52 1
    32   17   18 1
    33   17   39 1
    34   17   53 1
    35   18   19 1
    36   18   37 1
    37   18   54 1
    38   19   29 1
    39   19   72 1
    40   20   21 1
    41   20   22 1
    42   20   28 1
    43   22   23 ar
    44   22   27 ar
    45   23   24 ar
    46   23   55 1
    47   24   25 ar
    48   24   56 1
    49   25   26 ar
    50   25   57 1
    51   26   27 ar
    52   26   58 1
    53   27   59 1
    54   29   30 1
    55   29   60 1
    56   29   61 1
    57   30   31 ar
    58   30   36 ar
    59   31   32 ar
    60   31   62 1
    61   32   33 ar
    62   32   63 1
    63   33   34 1
    64   33   35 ar
    65   35   36 ar
    66   35   64 1
    67   36   65 1
    68   37   38 1
    69   37   66 1
    70   37   67 1
    71   38   39 1
    72   38   68 1
    73   39   69 1
    74   39   70 1
@<TRIPOS>SUBSTRUCTURE
     1 QN2         1 TEMP              0 ****  ****    0 ROOT
