@<TRIPOS>MOLECULE
QN3
   70    74     1     0     0
SMALL
bcc


@<TRIPOS>ATOM
      1 C2           0.0000     0.0000     0.0000 ca         1 QN3      -0.134500
      2 C6           1.3830     0.0000     0.0000 ca         1 QN3      -0.039000
      3 C5           2.0730     0.0000     1.1970 ca         1 QN3      -0.127000
      4 C20          1.3810    -0.0010     2.3960 ca         1 QN3       0.069900
      5 C27         -0.0020    -0.0000     2.3940 ca         1 QN3      -0.144000
      6 S9          -0.8850     0.0000     3.9200 sy         1 QN3       1.049200
      7 N32         -0.5900    -1.4540     4.6560 n3         1 QN3      -0.489500
      8 C24         -1.3440    -2.6440     4.2540 c3         1 QN3       0.168000
      9 C23         -2.7990    -2.5580     4.7700 c3         1 QN3       0.168000
     10 N28         -3.7060    -2.1390     3.6990 n3         1 QN3      -0.489500
     11 S8          -5.2330    -1.6130     4.0650 sy         1 QN3       1.049200
     12 O10         -6.0720    -2.0470     3.0050 o          1 QN3      -0.591800
     13 O41         -5.4600    -1.9560     5.4260 o          1 QN3      -0.591800
     14 C26         -5.2090     0.1480     3.9930 ca         1 QN3      -0.144000
     15 C19         -5.8780     0.8060     2.9790 ca         1 QN3       0.006500
     16 C3          -5.8610     2.1880     2.9230 ca         1 QN3      -0.134500
     17 C4          -5.1740     2.9100     3.8800 ca         1 QN3      -0.039000
     18 C1          -4.5030     2.2520     4.8950 ca         1 QN3      -0.127000
     19 C17         -4.5260     0.8710     4.9550 ca         1 QN3       0.069900
     20 Cl1         -3.6850     0.0430     6.2290 cl         1 QN3       0.014100
     21 C7          -3.2620    -2.1850     2.3040 c3         1 QN3       0.272100
     22 C12         -3.4700    -3.5730     1.7560 ca         1 QN3      -0.132300
     23 C13         -2.5020    -4.5430     1.9440 ca         1 QN3      -0.091750
     24 C29         -2.6920    -5.8160     1.4410 ca         1 QN3      -0.104000
     25 C31         -3.8500    -6.1200     0.7520 ca         1 QN3      -0.095500
     26 C30         -4.8180    -5.1520     0.5650 ca         1 QN3      -0.104000
     27 C14         -4.6310    -3.8800     1.0720 ca         1 QN3      -0.091750
     28 C21         -3.1000    -4.0150     5.2040 c3         1 QN3       0.098300
     29 N22         -1.8100    -4.4690     5.7860 n7         1 QN3      -0.573200
     30 C25         -0.7540    -3.9020     4.9200 c3         1 QN3       0.098300
     31 C33          0.4230    -1.5500     5.7090 c3         1 QN3       0.272100
     32 C34         -0.2540    -1.5920     7.0550 ca         1 QN3      -0.132300
     33 C35         -0.6910    -0.4210     7.6450 ca         1 QN3      -0.091750
     34 C36         -1.3120    -0.4590     8.8810 ca         1 QN3      -0.104000
     35 C37         -1.4950    -1.6690     9.5240 ca         1 QN3      -0.095500
     36 C39         -1.0590    -2.8390     8.9330 ca         1 QN3      -0.104000
     37 C38         -0.4430    -2.8020     7.6970 ca         1 QN3      -0.091750
     38 O11         -0.2760     0.9920     4.7350 o          1 QN3      -0.591800
     39 O40         -2.2650     0.0080     3.5840 o          1 QN3      -0.591800
     40 C18         -0.6930     0.0050     1.1970 ca         1 QN3       0.006500
     41 Cl3          2.2490    -0.0010     3.8990 cl         1 QN3       0.014100
     42 H2          -0.5410     0.0020    -0.9380 ha         1 QN3       0.109500
     43 H6           1.9240    -0.0020    -0.9380 ha         1 QN3       0.103500
     44 H5           3.1560    -0.0000     1.1970 ha         1 QN3       0.118500
     45 H24         -1.3370    -2.7540     3.1760 h1         1 QN3       0.072700
     46 H23         -2.8620    -1.8880     5.6190 h1         1 QN3       0.072700
     47 H19         -6.4170     0.2400     2.2290 ha         1 QN3       0.128500
     48 H3          -6.3860     2.7040     2.1280 ha         1 QN3       0.109500
     49 H4          -5.1590     3.9920     3.8340 ha         1 QN3       0.103500
     50 H1          -3.9670     2.8190     5.6460 ha         1 QN3       0.118500
     51 H71         -3.8360    -1.4770     1.7190 h1         1 QN3       0.033700
     52 H72         -2.2110    -1.9300     2.2510 h1         1 QN3       0.033700
     53 H13         -1.5940    -4.3040     2.4850 ha         1 QN3       0.123500
     54 H29         -1.9330    -6.5750     1.5880 ha         1 QN3       0.102000
     55 H31         -3.9990    -7.1180     0.3560 ha         1 QN3       0.100000
     56 H30         -5.7270    -5.3910     0.0260 ha         1 QN3       0.102000
     57 H14         -5.3900    -3.1220     0.9250 ha         1 QN3       0.123500
     58 H211        -3.3640    -4.6210     4.3460 h1         1 QN3       0.035200
     59 H212        -3.8830    -4.0360     5.9520 h1         1 QN3       0.035200
     60 HN22        -1.7640    -5.4680     5.7570 hn         1 QN3       0.251800
     61 H251        -0.4740    -4.6220     4.1610 h1         1 QN3       0.035200
     62 H252         0.1070    -3.6320     5.5180 h1         1 QN3       0.035200
     63 H331         1.0040    -2.4540     5.5690 h1         1 QN3       0.033700
     64 H332         1.0770    -0.6890     5.6610 h1         1 QN3       0.033700
     65 H35         -0.5470     0.5270     7.1400 ha         1 QN3       0.123500
     66 H36         -1.6550     0.4580     9.3440 ha         1 QN3       0.102000
     67 H37         -1.9800    -1.6990    10.4920 ha         1 QN3       0.100000
     68 H39         -1.2050    -3.7870     9.4370 ha         1 QN3       0.102000
     69 H38         -0.1010    -3.7190     7.2340 ha         1 QN3       0.123500
     70 H18         -1.7760     0.0050     1.1960 ha         1 QN3       0.128500
@<TRIPOS>BOND
     1     1     2 ar  
     2     1    40 ar  
     3     1    42 1   
     4     2     3 ar  
     5     2    43 1   
     6     3     4 ar  
     7     3    44 1   
     8     4     5 ar  
     9     4    41 1   
    10     5     6 1   
    11     5    40 ar  
    12     6     7 1   
    13     6    38 2   
    14     6    39 2   
    15     7     8 1   
    16     7    31 1   
    17     8     9 1   
    18     8    30 1   
    19     8    45 1   
    20     9    10 1   
    21     9    28 1   
    22     9    46 1   
    23    10    11 1   
    24    10    21 1   
    25    11    12 2   
    26    11    13 2   
    27    11    14 1   
    28    14    15 ar  
    29    14    19 ar  
    30    15    16 ar  
    31    15    47 1   
    32    16    17 ar  
    33    16    48 1   
    34    17    18 ar  
    35    17    49 1   
    36    18    19 ar  
    37    18    50 1   
    38    19    20 1   
    39    21    22 1   
    40    21    51 1   
    41    21    52 1   
    42    22    23 ar  
    43    22    27 ar  
    44    23    24 ar  
    45    23    53 1   
    46    24    25 ar  
    47    24    54 1   
    48    25    26 ar  
    49    25    55 1   
    50    26    27 ar  
    51    26    56 1   
    52    27    57 1   
    53    28    29 1   
    54    28    58 1   
    55    28    59 1   
    56    29    30 1   
    57    29    60 1   
    58    30    61 1   
    59    30    62 1   
    60    31    32 1   
    61    31    63 1   
    62    31    64 1   
    63    32    33 ar  
    64    32    37 ar  
    65    33    34 ar  
    66    33    65 1   
    67    34    35 ar  
    68    34    66 1   
    69    35    36 ar  
    70    35    67 1   
    71    36    37 ar  
    72    36    68 1   
    73    37    69 1   
    74    40    70 1   
@<TRIPOS>SUBSTRUCTURE
     1 QN3         1 TEMP              0 ****  ****    0 ROOT
