@<TRIPOS>MOLECULE
QN7
   54    58     1     0     0
SMALL
bcc


@<TRIPOS>ATOM
      1 C1           0.0000     0.0000     0.0000 c3         1 QN7       0.243700
      2 O2           1.4290     0.0000     0.0000 os         1 QN7      -0.288900
      3 C3           2.0460     0.0000     1.2110 ca         1 QN7       0.138100
      4 C4           1.2910     0.0000     2.3740 ca         1 QN7      -0.180000
      5 C5           1.9150     0.0020     3.6080 ca         1 QN7      -0.063000
      6 C6           3.2920     0.0020     3.6910 ca         1 QN7      -0.123000
      7 C7           4.0590     0.0020     2.5280 cp         1 QN7      -0.044000
      8 C8           3.4310    -0.0050     1.2840 ca         1 QN7       0.087900
      9 F9           4.1690    -0.0120     0.1520 f          1 QN7      -0.114900
     10 C10          5.5410     0.0030     2.6140 cp         1 QN7      -0.019000
     11 C11          6.2850    -0.9210     1.8820 ca         1 QN7      -0.052000
     12 C12          7.6620    -0.9150     1.9650 ca         1 QN7      -0.081000
     13 C13          8.3050     0.0050     2.7750 ca         1 QN7      -0.096000
     14 C14          7.5710     0.9240     3.5030 ca         1 QN7      -0.134300
     15 C15          6.1940     0.9310     3.4220 ca         1 QN7      -0.077000
     16 C16          8.2790     1.9220     4.3840 c3         1 QN7       0.221500
     17 C17          9.5730     1.3490     4.8980 c2         1 QN7       0.426200
     18 N18         10.6190     0.9590     4.2640 n2         1 QN7      -0.454900
     19 C19         11.7710     0.4540     5.0210 c3         1 QN7       0.104800
     20 C20         11.3050    -0.2230     6.3110 c3         1 QN7       0.353600
     21 C21         10.4820     0.7680     7.1480 c3         1 QN7       0.117800
     22 N22          9.4280     1.3050     6.2740 nh         1 QN7      -0.380600
     23 C23          8.2090     1.8100     6.6270 c2         1 QN7       0.227100
     24 N24          7.4960     2.1800     5.6050 n2         1 QN7      -0.434900
     25 N25          7.7800     1.9160     7.9290 nz         1 QN7       0.221400
     26 F26         10.5150    -1.3340     5.9940 f          1 QN7      -0.191800
     27 F27         12.4190    -0.6410     7.0470 f          1 QN7      -0.191800
     28 C28          8.5300     3.2040     3.6310 ca         1 QN7      -0.049300
     29 C29          7.5900     4.2220     3.6320 ca         1 QN7      -0.226300
     30 C30          7.8550     5.3840     2.9300 ca         1 QN7       0.406200
     31 N31          8.9850     5.5280     2.2670 nb         1 QN7      -0.554000
     32 C32          9.9020     4.5800     2.2440 ca         1 QN7       0.406200
     33 C33          9.7090     3.3940     2.9260 ca         1 QN7      -0.226300
     34 H11C        -0.3610    -0.0000    -1.0210 h1         1 QN7       0.003033
     35 H12C        -0.3610    -0.8840     0.5110 h1         1 QN7       0.003033
     36 H13C        -0.3610     0.8850     0.5100 h1         1 QN7       0.003033
     37 H4           0.2090    -0.0000     2.3160 ha         1 QN7       0.132000
     38 H5           1.3200     0.0020     4.5140 ha         1 QN7       0.106000
     39 H6           3.7760     0.0050     4.6600 ha         1 QN7       0.100000
     40 H11          5.7830    -1.6420     1.2470 ha         1 QN7       0.127000
     41 H15          5.6210     1.6520     3.9940 ha         1 QN7       0.116000
     42 H12          8.2410    -1.6320     1.3970 ha         1 QN7       0.118000
     43 H13          9.3860     0.0040     2.8390 ha         1 QN7       0.134000
     44 H191        12.4250     1.2810     5.2690 h1         1 QN7       0.073200
     45 H192        12.3080    -0.2650     4.4150 h1         1 QN7       0.073200
     46 H211        11.1230     1.5790     7.4730 h1         1 QN7       0.051700
     47 H212        10.0240     0.2410     7.9770 h1         1 QN7       0.051700
     48 H251         8.4470     2.4420     8.4590 hn         1 QN7       0.222467
     49 H252         6.8940     2.3820     7.9520 hn         1 QN7       0.222467
     50 H29          6.5980     4.0440     4.0290 ha         1 QN7       0.142500
     51 H33         10.5810     2.8980     2.5160 ha         1 QN7       0.142500
     52 H30          7.1260     6.1860     2.9270 h4         1 QN7      -0.007900
     53 H32         10.8160     4.7320     1.6830 h4         1 QN7      -0.007900
     54 H253         7.6640     1.0010     8.3180 hn         1 QN7       0.222467
@<TRIPOS>BOND
     1     1     2 1   
     2     1    34 1   
     3     1    35 1   
     4     1    36 1   
     5     2     3 1   
     6     3     4 ar  
     7     3     8 ar  
     8     4     5 ar  
     9     4    37 1   
    10     5     6 ar  
    11     5    38 1   
    12     6     7 ar  
    13     6    39 1   
    14     7     8 ar  
    15     7    10 1   
    16     8     9 1   
    17    10    11 ar  
    18    10    15 ar  
    19    11    12 ar  
    20    11    40 1   
    21    12    13 ar  
    22    12    42 1   
    23    13    14 ar  
    24    13    43 1   
    25    14    15 ar  
    26    14    16 1   
    27    15    41 1   
    28    16    17 1   
    29    16    24 1   
    30    16    28 1   
    31    17    18 2   
    32    17    22 1   
    33    18    19 1   
    34    19    20 1   
    35    19    44 1   
    36    19    45 1   
    37    20    21 1   
    38    20    26 1   
    39    20    27 1   
    40    21    22 1   
    41    21    46 1   
    42    21    47 1   
    43    22    23 1   
    44    23    24 2   
    45    23    25 1   
    46    25    48 1   
    47    25    49 1   
    48    25    54 1   
    49    28    29 ar  
    50    28    33 ar  
    51    29    30 ar  
    52    29    50 1   
    53    30    31 ar  
    54    30    52 1   
    55    31    32 ar  
    56    32    33 ar  
    57    32    53 1   
    58    33    51 1   
@<TRIPOS>SUBSTRUCTURE
     1 QN7         1 TEMP              0 ****  ****    0 ROOT
