@<TRIPOS>MOLECULE
molecule
   54    58     1     0     0
SMALL
bcc


@<TRIPOS>ATOM
      1 C1           0.0000     0.0000     0.0000 c3         1 QN7       0.126700
      2 O2           1.4290     0.0000     0.0000 os         1 QN7      -0.310900
      3 C3           2.0460     0.0000     1.2110 ca         1 QN7       0.118100
      4 C4           1.2910     0.0000     2.3740 ca         1 QN7      -0.190000
      5 C5           1.9150     0.0020     3.6080 ca         1 QN7      -0.101000
      6 C6           3.2920     0.0020     3.6910 ca         1 QN7      -0.141000
      7 C7           4.0590     0.0020     2.5280 cp         1 QN7      -0.057000
      8 C8           3.4310    -0.0050     1.2840 ca         1 QN7       0.120900
      9 F9           4.1690    -0.0120     0.1520 f          1 QN7      -0.121900
     10 C10          5.5410     0.0030     2.6140 cp         1 QN7      -0.030000
     11 C11          6.2850    -0.9210     1.8820 ca         1 QN7      -0.077000
     12 C12          7.6620    -0.9150     1.9650 ca         1 QN7      -0.117000
     13 C13          8.3050     0.0050     2.7750 ca         1 QN7      -0.105000
     14 C14          7.5710     0.9240     3.5030 ca         1 QN7      -0.115300
     15 C15          6.1940     0.9310     3.4220 ca         1 QN7      -0.091000
     16 C16          8.2790     1.9220     4.3840 c3         1 QN7       0.217500
     17 C17          9.5730     1.3490     4.8980 c2         1 QN7       0.611200
     18 N18         10.6190     0.9590     4.2640 n2         1 QN7      -0.560900
     19 C19         11.7710     0.4540     5.0210 c3         1 QN7       0.078800
     20 C20         11.3050    -0.2230     6.3110 c3         1 QN7       0.376600
     21 C21         10.4820     0.7680     7.1480 c3         1 QN7       0.171800
     22 N22          9.4280     1.3050     6.2740 nh         1 QN7      -0.783600
     23 C23          8.2090     1.8100     6.6270 c2         1 QN7       0.616100
     24 N24          7.4960     2.1800     5.6050 n2         1 QN7      -0.537900
     25 N25          7.7800     1.9160     7.9290 nz         1 QN7      -0.727600
     26 F26         10.5150    -1.3340     5.9940 f          1 QN7      -0.205300
     27 F27         12.4190    -0.6410     7.0470 f          1 QN7      -0.205300
     28 C28          8.5300     3.2040     3.6310 ca         1 QN7      -0.032300
     29 C29          7.5900     4.2220     3.6320 ca         1 QN7      -0.247800
     30 C30          7.8550     5.3840     2.9300 ca         1 QN7       0.422200
     31 N31          8.9850     5.5280     2.2670 nb         1 QN7      -0.670000
     32 C32          9.9020     4.5800     2.2440 ca         1 QN7       0.422200
     33 C33          9.7090     3.3940     2.9260 ca         1 QN7      -0.247800
     34 H11C        -0.3610    -0.0000    -1.0210 h1         1 QN7       0.048700
     35 H12C        -0.3610    -0.8840     0.5110 h1         1 QN7       0.048700
     36 H13C        -0.3610     0.8850     0.5100 h1         1 QN7       0.048700
     37 H4           0.2090    -0.0000     2.3160 ha         1 QN7       0.151000
     38 H5           1.3200     0.0020     4.5140 ha         1 QN7       0.138000
     39 H6           3.7760     0.0050     4.6600 ha         1 QN7       0.126000
     40 H11          5.7830    -1.6420     1.2470 ha         1 QN7       0.158000
     41 H15          5.6210     1.6520     3.9940 ha         1 QN7       0.139000
     42 H12          8.2410    -1.6320     1.3970 ha         1 QN7       0.151000
     43 H13          9.3860     0.0040     2.8390 ha         1 QN7       0.158000
     44 H191        12.4250     1.2810     5.2690 h1         1 QN7       0.110700
     45 H192        12.3080    -0.2650     4.4150 h1         1 QN7       0.110700
     46 H211        11.1230     1.5790     7.4730 h1         1 QN7       0.080200
     47 H212        10.0240     0.2410     7.9770 h1         1 QN7       0.080200
     48 H251         8.4470     2.4420     8.4590 hn         1 QN7       0.480467
     49 H252         6.8940     2.3820     7.9520 hn         1 QN7       0.480467
     50 H29          6.5980     4.0440     4.0290 ha         1 QN7       0.165000
     51 H33         10.5810     2.8980     2.5160 ha         1 QN7       0.165000
     52 H30          7.1260     6.1860     2.9270 h4         1 QN7       0.038100
     53 H32         10.8160     4.7320     1.6830 h4         1 QN7       0.038100
     54 H253         7.6640     1.0010     8.3180 hn         1 QN7       0.480467
@<TRIPOS>BOND
     1     1     2 1
     2     2     3 1
     3     3     4 ar
     4     3     8 ar
     5     4     5 ar
     6     5     6 ar
     7     6     7 ar
     8     7     8 ar
     9     7    10 1
    10     8     9 1
    11    10    11 ar
    12    10    15 ar
    13    11    12 ar
    14    12    13 ar
    15    13    14 ar
    16    14    15 ar
    17    14    16 1
    18    16    17 1
    19    16    24 1
    20    16    28 1
    21    17    18 2
    22    17    22 1
    23    18    19 1
    24    19    20 1
    25    20    21 1
    26    20    26 1
    27    20    27 1
    28    21    22 1
    29    22    23 1
    30    23    24 2
    31    23    25 1
    32    28    29 ar
    33    28    33 ar
    34    29    30 ar
    35    30    31 ar
    36    31    32 ar
    37    32    33 ar
    38     1    34 1
    39     1    35 1
    40     1    36 1
    41     4    37 1
    42     5    38 1
    43     6    39 1
    44    11    40 1
    45    15    41 1
    46    12    42 1
    47    13    43 1
    48    19    44 1
    49    19    45 1
    50    21    46 1
    51    21    47 1
    52    25    48 1
    53    25    49 1
    54    29    50 1
    55    33    51 1
    56    30    52 1
    57    32    53 1
    58    54    25 1
@<TRIPOS>SUBSTRUCTURE
     1 QN7         1 TEMP              0 ****  ****    0 ROOT
