@<TRIPOS>MOLECULE
QNB
   48    51     1     0     0
SMALL
bcc


@<TRIPOS>ATOM
      1 C1         -0.1480   -0.0800    0.3070 c3        1 QNB      0.225400
      2 C2          1.3590    0.0490    0.2460 ca        1 QNB     -0.131300
      3 C3          2.2210   -0.7570    0.9920 ca        1 QNB     -0.104750
      4 C4          3.6030   -0.5950    0.8780 ca        1 QNB     -0.135750
      5 C5          4.1300    0.3690    0.0210 ca        1 QNB     -0.115500
      6 C6          3.2720    1.1770   -0.7270 ca        1 QNB     -0.135750
      7 C7          1.8940    1.0190   -0.6150 ca        1 QNB     -0.104750
      8 C8         -0.6250   -1.2950    1.0670 ca        1 QNB     -0.131300
      9 C9         -0.5020   -1.3610    2.4620 ca        1 QNB     -0.104750
     10 C10        -0.9400   -2.4900    3.1530 ca        1 QNB     -0.135750
     11 C11        -1.5050   -3.5620    2.4620 ca        1 QNB     -0.115500
     12 C12        -1.6370   -3.4980    1.0760 ca        1 QNB     -0.135750
     13 C13        -1.2030   -2.3700    0.3810 ca        1 QNB     -0.104750
     14 C14        -0.7020    1.1990    0.9520 c         1 QNB      0.646100
     15 O15        -0.6860   -0.0920   -1.0180 oh        1 QNB     -0.572800
     16 O16        -0.7220    1.4970    2.1470 o         1 QNB     -0.541000
     17 O17        -1.1760    2.0830    0.0320 os        1 QNB     -0.403900
     18 C18        -1.7230    3.3220    0.5200 c3        1 QNB      0.113100
     19 C19        -1.7020    4.2940   -0.6880 c3        1 QNB      0.135800
     20 N20        -3.0360    4.8250   -0.9960 n3        1 QNB     -0.661600
     21 C21        -3.9200    3.6970   -1.3370 c3        1 QNB      0.132800
     22 C22        -4.0150    2.6580   -0.2040 c3        1 QNB     -0.105900
     23 C23        -3.1800    3.1390    0.9820 c3        1 QNB     -0.087700
     24 C24        -3.6880    4.5180    1.4070 c3        1 QNB     -0.105900
     25 C25        -3.5680    5.4800    0.2100 c3        1 QNB      0.132800
     26 H3          1.8190   -1.5240    1.6730 ha        1 QNB      0.150500
     27 H4          4.2760   -1.2330    1.4700 ha        1 QNB      0.135750
     28 H5          5.2200    0.4950   -0.0650 ha        1 QNB      0.134000
     29 H6          3.6830    1.9410   -1.4030 ha        1 QNB      0.135750
     30 H7          1.2040    1.6540   -1.1960 ha        1 QNB      0.150500
     31 H9         -0.0740   -0.5080    3.0150 ha        1 QNB      0.150500
     32 H10        -0.8420   -2.5290    4.2480 ha        1 QNB      0.135750
     33 H11        -1.8490   -4.4510    3.0100 ha        1 QNB      0.134000
     34 H12        -2.0900   -4.3360    0.5260 ha        1 QNB      0.135750
     35 H13        -1.3320   -2.3230   -0.7110 ha        1 QNB      0.150500
     36 HO15       -0.0950   -0.6340   -1.5560 ho        1 QNB      0.414000
     37 H18        -1.0900    3.7000    1.3660 h1        1 QNB      0.073700
     38 H19        -1.0200    5.1540   -0.4560 h1        1 QNB      0.069200
     39 H19A       -1.3080    3.7600   -1.5960 h1        1 QNB      0.069200
     40 H21        -4.9370    4.1120   -1.5690 h1        1 QNB      0.055700
     41 H21A       -3.5210    3.2130   -2.2690 h1        1 QNB      0.055700
     42 H22        -3.6260    1.6700   -0.5580 hc        1 QNB      0.052200
     43 H22A       -5.0790    2.5230    0.1100 hc        1 QNB      0.052200
     44 H23        -3.2250    2.4090    1.8270 hc        1 QNB      0.077700
     45 H24        -3.0890    4.8980    2.2710 hc        1 QNB      0.052200
     46 H24A       -4.7530    4.4390    1.7360 hc        1 QNB      0.052200
     47 H25        -4.5760    5.9050   -0.0440 h1        1 QNB      0.055700
     48 H25A       -2.8890    6.3360    0.4700 h1        1 QNB      0.055700
@<TRIPOS>BOND
     1    1    2 1
     2    1    8 1
     3    1   14 1
     4    1   15 1
     5    2    3 ar
     6    2    7 ar
     7    3    4 ar
     8    3   26 1
     9    4    5 ar
    10    4   27 1
    11    5    6 ar
    12    5   28 1
    13    6    7 ar
    14    6   29 1
    15    7   30 1
    16    8    9 ar
    17    8   13 ar
    18    9   10 ar
    19    9   31 1
    20   10   11 ar
    21   10   32 1
    22   11   12 ar
    23   11   33 1
    24   12   13 ar
    25   12   34 1
    26   13   35 1
    27   14   16 2
    28   14   17 1
    29   15   36 1
    30   17   18 1
    31   18   19 1
    32   18   23 1
    33   18   37 1
    34   19   20 1
    35   19   38 1
    36   19   39 1
    37   20   21 1
    38   20   25 1
    39   21   22 1
    40   21   40 1
    41   21   41 1
    42   22   23 1
    43   22   42 1
    44   22   43 1
    45   23   24 1
    46   23   44 1
    47   24   25 1
    48   24   45 1
    49   24   46 1
    50   25   47 1
    51   25   48 1
@<TRIPOS>SUBSTRUCTURE
     1 QNB         1 TEMP              0 ****  ****    0 ROOT
