@<TRIPOS>MOLECULE
QNC
   19    20     1     0     0
SMALL
bcc


@<TRIPOS>ATOM
      1 C           0.0840    0.0950   -0.0630 c         1 QNC      0.825100
      2 O           0.6520    1.1910   -0.2960 o         1 QNC     -0.804300
      3 N1         -2.0610    0.3010    1.2220 nb        1 QNC     -0.666000
      4 C2         -0.7680    0.0180    1.2300 ca        1 QNC      0.401800
      5 C3         -0.0590   -0.3780    2.4240 ca        1 QNC     -0.209300
      6 C4         -0.7340   -0.4710    3.6090 ca        1 QNC     -0.126000
      7 C5         -2.8900   -0.2510    4.8320 ca        1 QNC     -0.109000
      8 C6         -4.2330    0.0420    4.8240 ca        1 QNC     -0.162000
      9 C7         -4.8660    0.4240    3.6200 ca        1 QNC     -0.148000
     10 C8         -4.1570    0.5080    2.4460 ca        1 QNC     -0.167300
     11 C4A        -2.1300   -0.1750    3.6420 ca        1 QNC     -0.166300
     12 C8A        -2.7560    0.2100    2.4170 ca        1 QNC      0.403600
     13 O2          0.1780   -0.9610   -0.7360 o         1 QNC     -0.804300
     14 H3          1.0140   -0.5930    2.3370 ha        1 QNC      0.145000
     15 H4         -0.2340   -0.7690    4.5410 ha        1 QNC      0.113000
     16 H5         -2.3850   -0.5490    5.7630 ha        1 QNC      0.114000
     17 H6         -4.8270   -0.0160    5.7470 ha        1 QNC      0.111000
     18 H7         -5.9410    0.6540    3.6340 ha        1 QNC      0.112000
     19 H8         -4.6540    0.8050    1.5100 ha        1 QNC      0.140000
@<TRIPOS>BOND
     1    1    2 1   
     2    1    4 1   
     3    1   13 1   
     4    3    4 ar  
     5    3   12 ar  
     6    4    5 ar  
     7    5    6 ar  
     8    5   14 1   
     9    6   11 ar  
    10    6   15 1   
    11    7    8 ar  
    12    7   11 ar  
    13    7   16 1   
    14    8    9 ar  
    15    8   17 1   
    16    9   10 ar  
    17    9   18 1   
    18   10   12 ar  
    19   10   19 1   
    20   11   12 ar  
@<TRIPOS>SUBSTRUCTURE
     1 QNC         1 TEMP              0 ****  ****    0 ROOT
