@<TRIPOS>MOLECULE
molecule
   19    20     1     0     0
SMALL
bcc


@<TRIPOS>ATOM
      1 C            0.0000     0.0000     0.0000 c          1 QNC       0.777100
      2 O            1.2140     0.0000     0.0000 o          1 QNC      -0.814800
      3 N1          -2.0600     0.0000     1.2670 nb         1 QNC      -0.641000
      4 C2          -0.7410     0.0000     1.2840 ca         1 QNC       0.428800
      5 C3          -0.0240     0.0000     2.4890 ca         1 QNC      -0.206300
      6 C4          -0.6950     0.0000     3.6780 ca         1 QNC      -0.142000
      7 C5          -2.8550    -0.0010     4.8340 ca         1 QNC      -0.114000
      8 C6          -4.2140    -0.0020     4.7670 ca         1 QNC      -0.155000
      9 C7          -4.8710    -0.0020     3.5380 ca         1 QNC      -0.150000
     10 C8          -4.1750    -0.0010     2.3690 ca         1 QNC      -0.154300
     11 C4A         -2.1000     0.0000     3.6490 ca         1 QNC      -0.162300
     12 C8A         -2.7670     0.0000     2.3960 ca         1 QNC       0.409600
     13 O2          -0.6740     0.0060    -1.1660 o          1 QNC      -0.814800
     14 H3           1.0530     0.0000     2.6050 ha         1 QNC       0.146000
     15 H4          -0.0640     0.0000     4.5590 ha         1 QNC       0.118000
     16 H5          -2.3570    -0.0010     5.7970 ha         1 QNC       0.114000
     17 H6          -4.7940    -0.0020     5.6820 ha         1 QNC       0.107000
     18 H7          -5.9540    -0.0030     3.5130 ha         1 QNC       0.112000
     19 H8          -4.7020    -0.0010     1.4220 ha         1 QNC       0.144000
@<TRIPOS>BOND
     1     1     4 1
     2     1     2 1
     3     1    13 1
     4     3    12 ar
     5     3     4 ar
     6     4     5 ar
     7     5     6 ar
     8     5    14 1
     9     6    15 1
    10     7    16 1
    11     8     7 ar
    12     8    17 1
    13     9     8 ar
    14     9    18 1
    15    10     9 ar
    16    10    12 ar
    17    10    19 1
    18    11     6 ar
    19    11     7 ar
    20    12    11 ar
@<TRIPOS>SUBSTRUCTURE
     1 QNC         1 TEMP              0 ****  ****    0 ROOT
