@<TRIPOS>MOLECULE
molecule
   19    20     1     0     0
SMALL
bcc


@<TRIPOS>ATOM
      1 N1           0.0000     0.0000     0.0000 nb         1 QND      -0.643000
      2 C2           1.3180     0.0000     0.0000 ca         1 QND       0.423800
      3 C3           2.0500     0.0000     1.1970 ca         1 QND      -0.210300
      4 C4           1.3950    -0.0040     2.3930 ca         1 QND      -0.131000
      5 C5          -0.7510    -0.0130     3.5750 ca         1 QND      -0.114000
      6 C6          -2.1120    -0.0170     3.5260 ca         1 QND      -0.155000
      7 C7          -2.7830    -0.0170     2.3050 ca         1 QND      -0.150000
      8 C8          -2.1010    -0.0120     1.1280 ca         1 QND      -0.155300
      9 C9          -0.0120    -0.0080     2.3820 ca         1 QND      -0.169300
     10 C10         -0.6930    -0.0090     1.1370 ca         1 QND       0.409600
     11 C            2.0440     0.0050    -1.2910 c          1 QND       0.777100
     12 O1           3.2580     0.0080    -1.3070 o          1 QND      -0.815300
     13 O2           1.3560     0.0050    -2.4490 o          1 QND      -0.815300
     14 H3           3.1330    -0.0000     1.1710 ha         1 QND       0.155000
     15 H4           1.9440    -0.0040     3.3270 ha         1 QND       0.116000
     16 H5          -0.2410    -0.0130     4.5310 ha         1 QND       0.114000
     17 H6          -2.6800    -0.0200     4.4480 ha         1 QND       0.108000
     18 H7          -3.8660    -0.0200     2.2920 ha         1 QND       0.112000
     19 H8          -2.6390    -0.0120     0.1870 ha         1 QND       0.144000
@<TRIPOS>BOND
     1     1     2 ar
     2     1    10 ar
     3     2     3 ar
     4     2    11 1
     5     3     4 ar
     6     3    14 1
     7     4     9 ar
     8     4    15 1
     9     5     6 ar
    10     5     9 ar
    11     5    16 1
    12     6     7 ar
    13     6    17 1
    14     7     8 ar
    15     7    18 1
    16     8    10 ar
    17     8    19 1
    18     9    10 ar
    19    11    12 1
    20    11    13 1
@<TRIPOS>SUBSTRUCTURE
     1 QND         1 TEMP              0 ****  ****    0 ROOT
