@<TRIPOS>MOLECULE
QND
   19    20     1     0     0
SMALL
bcc


@<TRIPOS>ATOM
      1 N1         -0.0180   -0.2730   -0.0560 nb        1 QND     -0.666000
      2 C2          1.2830   -0.0260   -0.0600 ca        1 QND      0.401800
      3 C3          2.0190    0.3210    1.1330 ca        1 QND     -0.209300
      4 C4          1.3630    0.4040    2.3290 ca        1 QND     -0.126000
      5 C5         -0.7820    0.2140    3.5780 ca        1 QND     -0.109000
      6 C6         -2.1320   -0.0420    3.5820 ca        1 QND     -0.162000
      7 C7         -2.7920   -0.3760    2.3770 ca        1 QND     -0.148000
      8 C8         -2.1020   -0.4510    1.1930 ca        1 QND     -0.167300
      9 C9         -0.0400    0.1460    2.3750 ca        1 QND     -0.166300
     10 C10        -0.6940   -0.1910    1.1500 ca        1 QND      0.403600
     11 C           2.1150   -0.0950   -1.3670 c         1 QND      0.825100
     12 O1          2.6500   -1.2000   -1.6330 o         1 QND     -0.804800
     13 O2          2.2280    0.9740   -2.0170 o         1 QND     -0.804800
     14 H3          3.0970    0.5080    1.0350 ha        1 QND      0.145000
     15 H4          1.8850    0.6650    3.2600 ha        1 QND      0.113000
     16 H5         -0.2560    0.4750    4.5080 ha        1 QND      0.114000
     17 H6         -2.7110    0.0100    4.5140 ha        1 QND      0.111000
     18 H7         -3.8720   -0.5770    2.4020 ha        1 QND      0.112000
     19 H8         -2.6190   -0.7120    0.2560 ha        1 QND      0.140000
@<TRIPOS>BOND
     1    1    2 ar  
     2    1   10 ar  
     3    2    3 ar  
     4    2   11 1   
     5    3    4 ar  
     6    3   14 1   
     7    4    9 ar  
     8    4   15 1   
     9    5    6 ar  
    10    5    9 ar  
    11    5   16 1   
    12    6    7 ar  
    13    6   17 1   
    14    7    8 ar  
    15    7   18 1   
    16    8   10 ar  
    17    8   19 1   
    18    9   10 ar  
    19   11   12 1   
    20   11   13 1   
@<TRIPOS>SUBSTRUCTURE
     1 QND         1 TEMP              0 ****  ****    0 ROOT
