@<TRIPOS>MOLECULE
molecule
   40    43     1     0     0
SMALL
bcc


@<TRIPOS>ATOM
      1 C12          0.0000     0.0000     0.0000 cc         1 QNI       0.418700
      2 N3           1.3010     0.0000     0.0000 nd         1 QNI      -0.577100
      3 N4          -0.4650    -0.0000     1.2810 na         1 QNI      -0.361000
      4 C13          0.6240    -0.0010     2.1160 ca         1 QNI       0.456800
      5 N5           0.7980     0.0000     3.4330 nb         1 QNI      -0.775000
      6 C            2.0090     0.0010     3.9500 ca         1 QNI       0.724900
      7 C11          1.7530     0.0000     1.2780 ca         1 QNI      -0.172200
      8 C1           3.0240     0.0010     1.8770 ca         1 QNI       0.715200
      9 N            3.0980     0.0020     3.2040 nb         1 QNI      -0.809000
     10 N1           4.1710     0.0020     1.1040 nh         1 QNI      -0.681300
     11 C10          5.3740     0.0020     1.9460 c3         1 QNI       0.180800
     12 C5           6.6160    -0.1420     1.0640 c3         1 QNI      -0.066000
     13 C4           6.6690     1.0180     0.0670 c3         1 QNI      -0.082400
     14 C3           5.3820     1.0220    -0.7650 c3         1 QNI      -0.082400
     15 C2           4.1760     1.1350     0.1700 c3         1 QNI       0.168800
     16 C9           6.5530    -1.4680     0.3040 c3         1 QNI      -0.066400
     17 C8           7.8250    -1.6320    -0.5310 c3         1 QNI       0.155300
     18 N2           8.9980    -1.6080     0.3520 n7         1 QNI      -0.817200
     19 C7           9.1050    -0.3240     1.0570 c3         1 QNI       0.155300
     20 C6           7.8710    -0.1210     1.9390 c3         1 QNI      -0.066400
     21 H12         -0.6220     0.0000    -0.8870 h5         1 QNI       0.080800
     22 H4          -1.4260    -0.0010     1.5620 hn         1 QNI       0.314700
     23 H            2.1160     0.0020     5.0280 h5         1 QNI       0.062100
     24 H101         5.3270    -0.8290     2.6400 h1         1 QNI       0.058200
     25 H102         5.4280     0.9340     2.4950 h1         1 QNI       0.058200
     26 H21C         4.2390     2.0610     0.7290 h1         1 QNI       0.056700
     27 H22C         3.2650     1.1220    -0.4150 h1         1 QNI       0.056700
     28 H41C         6.7530     1.9530     0.6060 hc         1 QNI       0.045200
     29 H42C         7.5220     0.8920    -0.5880 hc         1 QNI       0.045200
     30 H91C         5.6890    -1.4670    -0.3510 hc         1 QNI       0.055950
     31 H92C         6.4770    -2.2860     1.0100 hc         1 QNI       0.055950
     32 H61C         7.8150    -0.9190     2.6700 hc         1 QNI       0.055950
     33 H62C         7.9430     0.8350     2.4440 hc         1 QNI       0.055950
     34 H31C         5.3160     0.1010    -1.3310 hc         1 QNI       0.053700
     35 H32C         5.3940     1.8690    -1.4410 hc         1 QNI       0.053700
     36 H81C         7.7900    -2.5790    -1.0570 h1         1 QNI       0.030450
     37 H82C         7.8940    -0.8200    -1.2450 h1         1 QNI       0.030450
     38 H2           9.8260    -1.7610    -0.1890 hn         1 QNI       0.349800
     39 H71C         9.9940    -0.3270     1.6760 h1         1 QNI       0.030450
     40 H72C         9.1660     0.4790     0.3330 h1         1 QNI       0.030450
@<TRIPOS>BOND
     1     1     2 2
     2     1     3 1
     3     2     7 1
     4     3     4 1
     5     4     5 ar
     6     4     7 ar
     7     5     6 ar
     8     6     9 ar
     9     7     8 ar
    10     8     9 ar
    11     8    10 1
    12    10    11 1
    13    10    15 1
    14    11    12 1
    15    12    13 1
    16    12    16 1
    17    12    20 1
    18    13    14 1
    19    14    15 1
    20    16    17 1
    21    17    18 1
    22    18    19 1
    23    19    20 1
    24     1    21 1
    25     3    22 1
    26     6    23 1
    27    11    24 1
    28    11    25 1
    29    15    26 1
    30    15    27 1
    31    13    28 1
    32    13    29 1
    33    16    30 1
    34    16    31 1
    35    20    32 1
    36    20    33 1
    37    14    34 1
    38    14    35 1
    39    17    36 1
    40    17    37 1
    41    18    38 1
    42    19    39 1
    43    19    40 1
@<TRIPOS>SUBSTRUCTURE
     1 QNI         1 TEMP              0 ****  ****    0 ROOT
