@<TRIPOS>MOLECULE
QNM
   31    32     1     0     0
SMALL
bcc


@<TRIPOS>ATOM
      1 OAK          0.0000     0.0000     0.0000 o          1 QNM      -0.894300
      2 CAI          1.3430     0.0000     0.0000 c          1 QNM       0.973600
      3 OAJ          1.9460     0.0000     1.0460 o          1 QNM      -0.894300
      4 C4           2.0970    -0.0010    -1.3060 c3         1 QNM      -0.076000
      5 N3           3.5360    -0.0010    -1.0380 ns         1 QNM      -0.124900
      6 C2           4.4130    -0.0020    -2.0620 c          1 QNM       0.597300
      7 O2           4.0100    -0.0940    -3.2060 o          1 QNM      -0.693100
      8 C6           6.5750    -1.0040    -1.3770 cc         1 QNM       0.197100
      9 O6           5.9350    -2.1790    -1.2190 oh         1 QNM      -0.480100
     10 CAL          8.5990    -2.1470    -0.6760 c3         1 QNM       0.148100
     11 CAN          8.6140     0.2360    -1.2610 ca         1 QNM       0.036600
     12 CAO          9.9800     0.2720    -0.9940 ca         1 QNM      -0.183000
     13 CA0          5.8510     0.1090    -1.7960 cd         1 QNM      -0.343400
     14 CAP         10.6790     1.4490    -1.1460 ca         1 QNM      -0.050000
     15 CAQ         10.0360     2.6050    -1.5640 ca         1 QNM      -0.161000
     16 CAR          8.6850     2.5900    -1.8360 ca         1 QNM      -0.001000
     17 CAS          7.9640     1.4060    -1.6850 ca         1 QNM      -0.195600
     18 CAT          6.5180     1.3550    -1.9660 c          1 QNM       0.653900
     19 NAN          7.9000    -0.9380    -1.1190 na         1 QNM      -0.094800
     20 OAU          5.9130     2.3470    -2.3330 o          1 QNM      -0.580100
     21 H41C         1.8350    -0.8860    -1.8730 h1         1 QNM       0.024200
     22 H42C         1.8350     0.8830    -1.8750 h1         1 QNM       0.024200
     23 H3           3.8690     0.0180    -0.0940 hn         1 QNM       0.195500
     24 HAL1         9.0910    -1.9540     0.2700 h1         1 QNM       0.023700
     25 HAL2         7.8860    -2.9530    -0.5540 h1         1 QNM       0.023700
     26 HAL3         9.3390    -2.4290    -1.4160 h1         1 QNM       0.023700
     27 HAO         10.4920    -0.6250    -0.6660 ha         1 QNM       0.112000
     28 HAP         11.7420     1.4730    -0.9350 ha         1 QNM       0.093000
     29 HAQ         10.5980     3.5230    -1.6800 ha         1 QNM       0.102000
     30 HAR          8.1850     3.4940    -2.1630 ha         1 QNM       0.125000
     31 HO6          5.9500    -2.6570    -2.0320 ho         1 QNM       0.418000
@<TRIPOS>BOND
     1     1     2 1   
     2     2     3 1   
     3     2     4 1   
     4     4     5 1   
     5     4    21 1   
     6     4    22 1   
     7     5     6 1   
     8     5    23 1   
     9     6     7 2   
    10     6    13 1   
    11     8     9 1   
    12     8    13 2   
    13     8    19 1   
    14     9    31 1   
    15    10    19 1   
    16    10    24 1   
    17    10    25 1   
    18    10    26 1   
    19    11    12 ar  
    20    11    17 ar  
    21    11    19 1   
    22    12    14 ar  
    23    12    27 1   
    24    13    18 1   
    25    14    15 ar  
    26    14    28 1   
    27    15    16 ar  
    28    15    29 1   
    29    16    17 ar  
    30    16    30 1   
    31    17    18 1   
    32    18    20 2   
@<TRIPOS>SUBSTRUCTURE
     1 QNM         1 TEMP              0 ****  ****    0 ROOT
