@<TRIPOS>MOLECULE
molecule
   31    32     1     0     0
SMALL
bcc


@<TRIPOS>ATOM
      1 OAK          0.0000     0.0000     0.0000 o          1 QNM      -0.847300
      2 CAI          1.3430     0.0000     0.0000 c          1 QNM       0.884600
      3 OAJ          1.9460     0.0000     1.0460 o          1 QNM      -0.847300
      4 C4           2.0970    -0.0010    -1.3060 c3         1 QNM      -0.003000
      5 N3           3.5360    -0.0010    -1.0380 ns         1 QNM      -0.530900
      6 C2           4.4130    -0.0020    -2.0620 c          1 QNM       0.680300
      7 O2           4.0100    -0.0940    -3.2060 o          1 QNM      -0.639100
      8 C6           6.5750    -1.0040    -1.3770 cc         1 QNM       0.339100
      9 O6           5.9350    -2.1790    -1.2190 oh         1 QNM      -0.497100
     10 CAL          8.5990    -2.1470    -0.6760 c3         1 QNM       0.196100
     11 CAN          8.6140     0.2360    -1.2610 ca         1 QNM       0.191600
     12 CAO          9.9800     0.2720    -0.9940 ca         1 QNM      -0.197000
     13 CA0          5.8510     0.1090    -1.7960 cd         1 QNM      -0.325400
     14 CAP         10.6790     1.4490    -1.1460 ca         1 QNM      -0.082000
     15 CAQ         10.0360     2.6050    -1.5640 ca         1 QNM      -0.182000
     16 CAR          8.6850     2.5900    -1.8360 ca         1 QNM      -0.037000
     17 CAS          7.9640     1.4060    -1.6850 ca         1 QNM      -0.193600
     18 CAT          6.5180     1.3550    -1.9660 c          1 QNM       0.599900
     19 NAN          7.9000    -0.9380    -1.1190 na         1 QNM      -0.535800
     20 OAU          5.9130     2.3470    -2.3330 o          1 QNM      -0.540100
     21 H41C         1.8350    -0.8860    -1.8730 h1         1 QNM       0.046200
     22 H42C         1.8350     0.8830    -1.8750 h1         1 QNM       0.046200
     23 H3           3.8690     0.0180    -0.0940 hn         1 QNM       0.336500
     24 HAL1         9.0910    -1.9540     0.2700 h1         1 QNM       0.052700
     25 HAL2         7.8860    -2.9530    -0.5540 h1         1 QNM       0.052700
     26 HAL3         9.3390    -2.4290    -1.4160 h1         1 QNM       0.052700
     27 HAO         10.4920    -0.6250    -0.6660 ha         1 QNM       0.129000
     28 HAP         11.7420     1.4730    -0.9350 ha         1 QNM       0.124000
     29 HAQ         10.5980     3.5230    -1.6800 ha         1 QNM       0.128000
     30 HAR          8.1850     3.4940    -2.1630 ha         1 QNM       0.159000
     31 HO6          5.9500    -2.6570    -2.0320 ho         1 QNM       0.440000
@<TRIPOS>BOND
     1     3     2 1
     2     2     1 1
     3     2     4 1
     4     4     5 1
     5     5     6 1
     6     6     7 2
     7     6    13 1
     8     8     9 1
     9     8    13 2
    10     8    19 1
    11    10    19 1
    12    11    12 ar
    13    11    17 ar
    14    11    19 1
    15    12    14 ar
    16    14    15 ar
    17    15    16 ar
    18    16    17 ar
    19    13    18 1
    20    17    18 1
    21    18    20 2
    22     4    21 1
    23     4    22 1
    24     5    23 1
    25    10    24 1
    26    10    25 1
    27    10    26 1
    28    12    27 1
    29    14    28 1
    30    15    29 1
    31    16    30 1
    32     9    31 1
@<TRIPOS>SUBSTRUCTURE
     1 QNM         1 TEMP              0 ****  ****    0 ROOT
