@<TRIPOS>MOLECULE
QNO
   46    47     1     0     0
SMALL
bcc


@<TRIPOS>ATOM
      1 C29         0.0280    0.4780    1.3950 c3        1 QNO     -0.092100
      2 C28         1.4820    0.4090    1.0050 c3        1 QNO     -0.080400
      3 C27         2.3660    0.1270    2.2010 c3        1 QNO     -0.079400
      4 C26         3.8250    0.0580    1.8040 c3        1 QNO     -0.079400
      5 C25         4.7080   -0.2250    3.0000 c3        1 QNO     -0.078400
      6 C24         6.1670   -0.2950    2.6020 c3        1 QNO     -0.078400
      7 C23         7.0500   -0.5750    3.7980 c3        1 QNO     -0.080400
      8 C22         8.5060   -0.6630    3.3950 c3        1 QNO     -0.080400
      9 C21         9.4220   -0.8560    4.5890 c3        1 QNO     -0.014100
     10 C2          9.5320    0.3790    5.4330 ca        1 QNO     -0.139600
     11 C3          8.8340    0.4380    6.6690 ca        1 QNO     -0.193000
     12 C4          8.9250    1.5500    7.4750 ca        1 QNO      0.109100
     13 O41         8.2780    1.6730    8.6820 oh        1 QNO     -0.490100
     14 C5          9.7270    2.6640    7.0700 ca        1 QNO     -0.025000
     15 C51         9.8580    3.8330    7.8600 ca        1 QNO     -0.103000
     16 C52        10.6390    4.8820    7.4330 ca        1 QNO     -0.118000
     17 C62        11.3210    4.8050    6.1990 ca        1 QNO     -0.124000
     18 C61        11.2160    3.6860    5.4070 ca        1 QNO     -0.091000
     19 C6         10.4120    2.5860    5.8300 ca        1 QNO     -0.078300
     20 N1         10.3100    1.4270    5.0000 na        1 QNO      0.228600
     21 OH         10.9170    1.3920    3.9330 o         1 QNO     -0.305000
     22 H291       -0.3060   -0.4880    1.8460 hc        1 QNO      0.032367
     23 H292       -0.1410    1.2900    2.1440 hc        1 QNO      0.032367
     24 H293       -0.6050    0.6870    0.5000 hc        1 QNO      0.032367
     25 H281        1.7920    1.3780    0.5320 hc        1 QNO      0.038700
     26 H282        1.6270   -0.3950    0.2350 hc        1 QNO      0.038700
     27 H271        2.0580   -0.8430    2.6740 hc        1 QNO      0.038700
     28 H272        2.2230    0.9300    2.9710 hc        1 QNO      0.038700
     29 H261        4.1320    1.0270    1.3300 hc        1 QNO      0.040200
     30 H262        3.9670   -0.7460    1.0330 hc        1 QNO      0.040200
     31 H251        4.4000   -1.1940    3.4740 hc        1 QNO      0.038200
     32 H252        4.5670    0.5800    3.7690 hc        1 QNO      0.038200
     33 H241        6.4740    0.6730    2.1260 hc        1 QNO      0.042200
     34 H242        6.3080   -1.1010    1.8330 hc        1 QNO      0.042200
     35 H231        6.9220    0.2380    4.5620 hc        1 QNO      0.036700
     36 H232        6.7330   -1.5360    4.2830 hc        1 QNO      0.036700
     37 H221        8.8100    0.2640    2.8400 hc        1 QNO      0.056200
     38 H222        8.6450   -1.5300    2.6960 hc        1 QNO      0.056200
     39 H211        9.0460   -1.6960    5.2300 hc        1 QNO      0.061700
     40 H212       10.4450   -1.1370    4.2140 hc        1 QNO      0.061700
     41 H3          8.2220   -0.4300    6.9530 ha        1 QNO      0.153000
     42 H41         7.7770    0.8570    8.8340 ho        1 QNO      0.424000
     43 H51         9.3170    3.8730    8.8190 ha        1 QNO      0.157000
     44 H52        10.7390    5.7890    8.0480 ha        1 QNO      0.140000
     45 H62        11.9410    5.6540    5.8730 ha        1 QNO      0.142000
     46 H61        11.7450    3.6150    4.4410 ha        1 QNO      0.173000
@<TRIPOS>BOND
     1    1    2 1   
     2    1   22 1   
     3    1   23 1   
     4    1   24 1   
     5    2    3 1   
     6    2   25 1   
     7    2   26 1   
     8    3    4 1   
     9    3   27 1   
    10    3   28 1   
    11    4    5 1   
    12    4   29 1   
    13    4   30 1   
    14    5    6 1   
    15    5   31 1   
    16    5   32 1   
    17    6    7 1   
    18    6   33 1   
    19    6   34 1   
    20    7    8 1   
    21    7   35 1   
    22    7   36 1   
    23    8    9 1   
    24    8   37 1   
    25    8   38 1   
    26    9   10 1   
    27    9   39 1   
    28    9   40 1   
    29   10   11 ar  
    30   10   20 2   
    31   11   12 ar  
    32   11   41 1   
    33   12   13 1   
    34   12   14 ar  
    35   13   42 1   
    36   14   15 ar  
    37   14   19 ar  
    38   15   16 ar  
    39   15   43 1   
    40   16   17 ar  
    41   16   44 1   
    42   17   18 ar  
    43   17   45 1   
    44   18   19 ar  
    45   18   46 1   
    46   19   20 1   
    47   20   21 1   
@<TRIPOS>SUBSTRUCTURE
     1 QNO         1 TEMP              0 ****  ****    0 ROOT
