@<TRIPOS>MOLECULE
molecule
   46    47     1     0     0
SMALL
bcc


@<TRIPOS>ATOM
      1 C29          0.0000     0.0000     0.0000 c3         1 QNO      -0.090100
      2 C28          1.5200     0.0000     0.0000 c3         1 QNO      -0.082400
      3 C27          2.0810     0.0000     1.4220 c3         1 QNO      -0.079400
      4 C26          3.6110     0.0340     1.4170 c3         1 QNO      -0.077400
      5 C25          4.1700    -0.0060     2.8420 c3         1 QNO      -0.078400
      6 C24          5.7010     0.0390     2.8950 c3         1 QNO      -0.075400
      7 C23          6.2570     0.0260     4.3210 c3         1 QNO      -0.077400
      8 C22          7.7880     0.0100     4.3730 c3         1 QNO      -0.091400
      9 C21          8.3450    -0.0790     5.7950 c3         1 QNO      -0.001100
     10 C2           9.8770    -0.0780     5.7940 ca         1 QNO      -0.043600
     11 C3          10.4370    -0.2110     7.2210 ca         1 QNO      -0.153000
     12 C4          10.5540     1.1120     7.9460 ca         1 QNO       0.059100
     13 O41         10.6160     1.0240     9.3260 oh         1 QNO      -0.505100
     14 C5          10.6390     2.3020     7.3110 ca         1 QNO      -0.027000
     15 C51         10.8120     3.5620     8.0390 ca         1 QNO      -0.112000
     16 C52         10.9420     4.7250     7.3810 ca         1 QNO      -0.114000
     17 C62         10.9150     4.7440     5.9370 ca         1 QNO      -0.125000
     18 C61         10.7490     3.6000     5.2530 ca         1 QNO      -0.094000
     19 C6          10.5860     2.3170     5.9480 ca         1 QNO      -0.039300
     20 N1          10.3670     1.1610     5.2040 na         1 QNO       0.060600
     21 OH          10.3680     1.1630     3.8160 o          1 QNO      -0.276000
     22 H291        -0.3610    -0.8810     0.5160 hc         1 QNO       0.032700
     23 H292        -0.3610     0.8880     0.5050 hc         1 QNO       0.032700
     24 H293        -0.3610    -0.0070    -1.0210 hc         1 QNO       0.032700
     25 H281         1.8740    -0.8820    -0.5200 hc         1 QNO       0.038700
     26 H282         1.8740     0.8820    -0.5200 hc         1 QNO       0.038700
     27 H271         1.7100     0.8700     1.9500 hc         1 QNO       0.038700
     28 H272         1.7480    -0.8950     1.9340 hc         1 QNO       0.038700
     29 H261         3.9450     0.9420     0.9300 hc         1 QNO       0.040700
     30 H262         3.9830    -0.8220     0.8660 hc         1 QNO       0.040700
     31 H251         3.8330    -0.9160     3.3210 hc         1 QNO       0.036700
     32 H252         3.7790     0.8420     3.3910 hc         1 QNO       0.036700
     33 H241         6.0400     0.9410     2.3990 hc         1 QNO       0.042200
     34 H242         6.0920    -0.8190     2.3620 hc         1 QNO       0.042200
     35 H231         5.9010     0.9080     4.8400 hc         1 QNO       0.034200
     36 H232         5.8820    -0.8530     4.8310 hc         1 QNO       0.034200
     37 H221         8.1600     0.9150     3.9100 hc         1 QNO       0.066700
     38 H222         8.1450    -0.8420     3.8070 hc         1 QNO       0.066700
     39 H211         7.9910     0.7700     6.3670 hc         1 QNO       0.065200
     40 H212         7.9910    -0.9920     6.2580 hc         1 QNO       0.065200
     41 H3          11.1110    -1.0240     7.4650 ha         1 QNO       0.174000
     42 H41         11.4080     0.5770     9.5770 ho         1 QNO       0.418000
     43 H51         10.8320     3.5560     9.1220 ha         1 QNO       0.152000
     44 H52         11.0760     5.6480     7.9330 ha         1 QNO       0.141000
     45 H62         11.0200     5.6820     5.4050 ha         1 QNO       0.144000
     46 H61         10.7300     3.6250     4.1710 ha         1 QNO       0.169000
@<TRIPOS>BOND
     1     1     2 1
     2     1    22 1
     3     1    23 1
     4     1    24 1
     5     2     3 1
     6     2    25 1
     7     2    26 1
     8     3     4 1
     9     3    27 1
    10     3    28 1
    11     4     5 1
    12     4    29 1
    13     4    30 1
    14     5     6 1
    15     5    31 1
    16     5    32 1
    17     6     7 1
    18     6    33 1
    19     6    34 1
    20     7     8 1
    21     7    35 1
    22     7    36 1
    23     8     9 1
    24     8    37 1
    25     8    38 1
    26     9    10 1
    27     9    39 1
    28     9    40 1
    29    10    11 ar
    30    10    20 2
    31    11    12 ar
    32    11    41 1
    33    12    13 1
    34    12    14 ar
    35    13    42 1
    36    14    15 ar
    37    14    19 ar
    38    15    16 ar
    39    15    43 1
    40    16    17 ar
    41    16    44 1
    42    17    18 ar
    43    17    45 1
    44    18    19 ar
    45    18    46 1
    46    19    20 1
    47    20    21 1
@<TRIPOS>SUBSTRUCTURE
     1 QNO         1 TEMP              0 ****  ****    0 ROOT
