@<TRIPOS>MOLECULE
molecule
   44    47     1     0     0
SMALL
bcc


@<TRIPOS>ATOM
      1 N2          -1.2860     0.0200    -2.2230 n1         1 QNZ      -0.380800
      2 C23         -0.7150    -0.0000    -1.2400 cg         1 QNZ       0.247800
      3 C20          0.0000     0.0000     0.0000 ca         1 QNZ      -0.027000
      4 C19          1.3970     0.0000     0.0000 ca         1 QNZ      -0.107500
      5 C18          2.0810     0.0000     1.1820 ca         1 QNZ      -0.107000
      6 C21         -0.7010     0.0060     1.2110 ca         1 QNZ      -0.107500
      7 C22         -0.0190     0.0060     2.3940 ca         1 QNZ      -0.107000
      8 C17          1.3810    -0.0000     2.3950 ca         1 QNZ      -0.058800
      9 C16          2.1160    -0.0020     3.6690 ce         1 QNZ      -0.113200
     10 C15          1.4410    -0.0020     4.8370 cf         1 QNZ      -0.165600
     11 C14          2.1730    -0.0020     6.1050 cd         1 QNZ       0.549200
     12 N            1.4590    -0.0940     7.2750 n          1 QNZ      -0.270500
     13 C5           0.0620    -0.1830     7.2330 ca         1 QNZ      -0.000400
     14 C4          -0.5530    -1.4290     7.1660 ca         1 QNZ      -0.167000
     15 C3          -1.9310    -1.5230     7.1230 ca         1 QNZ      -0.185000
     16 C2          -2.7060    -0.3820     7.1470 ca         1 QNZ      -0.065000
     17 C6          -0.7070     0.9680     7.2630 ca         1 QNZ      -0.114000
     18 C1          -2.0990     0.8740     7.2140 ca         1 QNZ      -0.096600
     19 C           -2.9260     2.0980     7.2390 c          1 QNZ       0.879200
     20 O1          -2.3960     3.1890     7.2980 o          1 QNZ      -0.825300
     21 O           -4.2700     2.0040     7.1970 o          1 QNZ      -0.825300
     22 N1           3.4820     0.0790     6.0740 nc         1 QNZ      -0.640100
     23 C9           4.2180     0.0840     7.2020 ca         1 QNZ       0.193400
     24 C10          5.6140     0.1710     7.1630 ca         1 QNZ      -0.114000
     25 C11          6.3260     0.1720     8.3290 ca         1 QNZ      -0.143000
     26 C12          5.6850     0.0890     9.5590 ca         1 QNZ      -0.195000
     27 C13          4.3110     0.0010     9.6290 ca         1 QNZ      -0.039000
     28 C8           3.5650    -0.0020     8.4530 ca         1 QNZ      -0.191600
     29 C7           2.0980    -0.0990     8.4680 c          1 QNZ       0.706100
     30 O2           1.4810    -0.1800     9.5130 o          1 QNZ      -0.596500
     31 H19          1.7000     0.6770    -0.7890 ha         1 QNZ       0.145500
     32 H21         -1.7780     0.1130     1.2600 ha         1 QNZ       0.145500
     33 H18          3.0970     0.3510     1.0470 ha         1 QNZ       0.151500
     34 H22         -0.5360    -0.2050     3.3220 ha         1 QNZ       0.151500
     35 H16          2.1190     1.0320     3.9930 ha         1 QNZ       0.186000
     36 H15          0.4500    -0.4360     4.8720 ha         1 QNZ       0.135000
     37 H4          -0.2690    -2.4360     7.4450 ha         1 QNZ       0.131000
     38 H6          -0.4680     1.9480     7.6590 ha         1 QNZ       0.187000
     39 H3          -2.2860    -2.5290     7.3080 ha         1 QNZ       0.114000
     40 H2          -3.7110    -0.6140     7.4800 ha         1 QNZ       0.148000
     41 H10          6.0530     0.6980     6.3250 ha         1 QNZ       0.152000
     42 H11          7.1420    -0.5180     8.5060 ha         1 QNZ       0.139000
     43 H12          6.4810     0.1000    10.2930 ha         1 QNZ       0.134000
     44 H13          4.2000    -0.6460    10.4910 ha         1 QNZ       0.149000
@<TRIPOS>BOND
     1     1     2 3
     2     2     3 1
     3     3     4 ar
     4     3     6 ar
     5     4     5 ar
     6     5     8 ar
     7     6     7 ar
     8     7     8 ar
     9     8     9 1
    10     9    10 2
    11    10    11 1
    12    11    12 1
    13    11    22 2
    14    12    13 1
    15    12    29 1
    16    13    14 ar
    17    13    17 ar
    18    14    15 ar
    19    15    16 ar
    20    16    18 ar
    21    17    18 ar
    22    18    19 1
    23    19    20 1
    24    19    21 1
    25    22    23 1
    26    23    24 ar
    27    23    28 ar
    28    24    25 ar
    29    25    26 ar
    30    26    27 ar
    31    27    28 ar
    32    28    29 1
    33    29    30 2
    34     4    31 1
    35     6    32 1
    36     5    33 1
    37     7    34 1
    38     9    35 1
    39    10    36 1
    40    14    37 1
    41    17    38 1
    42    15    39 1
    43    16    40 1
    44    24    41 1
    45    25    42 1
    46    26    43 1
    47    27    44 1
@<TRIPOS>SUBSTRUCTURE
     1 QNZ         1 TEMP              0 ****  ****    0 ROOT
