@<TRIPOS>MOLECULE
QOL
   36    37     1     0     0
SMALL
bcc


@<TRIPOS>ATOM
      1 OZ1          0.0000     0.0000     0.0000 oh         1 QOL      -0.586800
      2 CE1          1.4290     0.0000     0.0000 c3         1 QOL       0.231400
      3 CD           1.9380     0.0000     1.4430 c3         1 QOL      -0.082700
      4 CE2          1.5330    -1.3070     2.1270 c3         1 QOL       0.231400
      5 OZ2          1.9060    -1.2590     3.5050 oh         1 QOL      -0.586800
      6 CG           3.4640     0.1260     1.4460 c3         1 QOL       0.210400
      7 OB           3.9290     0.2430     2.7910 os         1 QOL      -0.265900
      8 C8           5.2680     0.3630     2.9710 ca         1 QOL       0.187100
      9 C9           6.1320     0.3710     1.8930 ca         1 QOL      -0.325300
     10 C10          7.5120     0.4970     2.1120 ca         1 QOL       0.297800
     11 C            8.4280     0.5050     0.9560 c          1 QOL       0.550400
     12 O            9.6230     0.6140     1.1300 o          1 QOL      -0.528100
     13 N11          8.0100     0.6110     3.3310 nb         1 QOL      -0.519000
     14 C7           7.2270     0.6100     4.4080 ca         1 QOL       0.358600
     15 C6           5.8200     0.4910     4.2660 ca         1 QOL      -0.137300
     16 C5           5.0040     0.4910     5.4050 ca         1 QOL      -0.092000
     17 C4           5.5620     0.6080     6.6430 ca         1 QOL      -0.082000
     18 C3           6.9400     0.7250     6.8000 ca         1 QOL      -0.134000
     19 C2           7.7760     0.7380     5.7050 ca         1 QOL      -0.007700
     20 N            9.1530     0.8560     5.8760 nv         1 QOL      -0.499200
     21 H1          -0.3140     0.2170    -0.8620 ho         1 QOL       0.390500
     22 H2           1.7910     0.8850    -0.5100 h1         1 QOL      -0.008300
     23 H3           1.7910    -0.8850    -0.5110 h1         1 QOL      -0.008300
     24 H4           1.5060     0.8370     1.9780 hc         1 QOL       0.057700
     25 H5           2.0360    -2.1380     1.6460 h1         1 QOL      -0.008300
     26 H6           0.4610    -1.4390     2.0480 h1         1 QOL      -0.008300
     27 H7           1.3920    -1.8810     3.9920 ho         1 QOL       0.390500
     28 H8           3.8990    -0.7540     0.9880 h1         1 QOL       0.002200
     29 H9           3.7540     1.0060     0.8850 h1         1 QOL       0.002200
     30 H10          5.7390     0.4020     0.8840 ha         1 QOL       0.126000
     31 H11          8.0350     0.3960    -0.0470 h4         1 QOL      -0.042800
     32 H12          3.9290     0.4010     5.3020 ha         1 QOL       0.125000
     33 H13          4.9240     0.6000     7.5180 ha         1 QOL       0.101000
     34 H14          7.3590     0.8160     7.7950 ha         1 QOL       0.109000
     35 H15          9.6320     1.6640     5.5280 hn         1 QOL       0.274800
     36 H16          9.6600     0.1450     6.3640 hn         1 QOL       0.274800
@<TRIPOS>BOND
     1     1     2 1   
     2     1    21 1   
     3     2     3 1   
     4     2    22 1   
     5     2    23 1   
     6     3     4 1   
     7     3     6 1   
     8     3    24 1   
     9     4     5 1   
    10     4    25 1   
    11     4    26 1   
    12     5    27 1   
    13     6     7 1   
    14     6    28 1   
    15     6    29 1   
    16     7     8 1   
    17     8     9 ar  
    18     8    15 ar  
    19     9    10 ar  
    20     9    30 1   
    21    10    11 1   
    22    10    13 ar  
    23    11    12 2   
    24    11    31 1   
    25    13    14 ar  
    26    14    15 ar  
    27    14    19 ar  
    28    15    16 ar  
    29    16    17 ar  
    30    16    32 1   
    31    17    18 ar  
    32    17    33 1   
    33    18    19 ar  
    34    18    34 1   
    35    19    20 1   
    36    20    35 1   
    37    20    36 1   
@<TRIPOS>SUBSTRUCTURE
     1 QOL         1 TEMP              0 ****  ****    0 ROOT
