@<TRIPOS>MOLECULE
QPC
   59    61     1     0     0
SMALL
bcc


@<TRIPOS>ATOM
      1 C1           0.0000     0.0000     0.0000 ca         1 QPC       0.521200
      2 N1           1.3210     0.0000     0.0000 nb         1 QPC      -0.637000
      3 C2           2.0070     0.0000     1.1370 cp         1 QPC       0.795500
      4 N2           1.4090     0.0000     2.3190 nb         1 QPC      -0.675000
      5 C3           0.0840    -0.0000     2.4100 ca         1 QPC       0.592200
      6 C4          -0.6800    -0.0010     1.2220 ca         1 QPC      -0.588200
      7 C5           3.4870     0.0010     1.0810 cp         1 QPC      -0.221500
      8 C6           4.1420     0.0000    -0.1500 ca         1 QPC      -0.039000
      9 C7           5.5210     0.0010    -0.1960 ca         1 QPC      -0.113500
     10 C8           6.2550     0.0020     0.9770 ca         1 QPC      -0.041000
     11 C9           5.6110     0.0030     2.2020 ca         1 QPC      -0.113500
     12 C10          4.2330     0.0080     2.2590 ca         1 QPC      -0.039000
     13 N3          -0.5360    -0.0010     3.6430 nu         1 QPC      -0.187300
     14 C11          0.2130    -0.2300     4.8020 ca         1 QPC      -0.086400
     15 C12         -0.3940    -0.7740     5.9260 ca         1 QPC      -0.104500
     16 C13          0.3490    -0.9990     7.0680 ca         1 QPC      -0.066000
     17 C14          1.6950    -0.6860     7.0940 ca         1 QPC      -0.034300
     18 C15          2.3030    -0.1440     5.9750 ca         1 QPC      -0.066000
     19 C16          1.5670     0.0790     4.8280 ca         1 QPC      -0.104500
     20 C17          2.5030    -0.9330     8.3420 c3         1 QPC      -0.047100
     21 C18          3.0850    -2.3220     8.2960 c          1 QPC       0.567100
     22 N4           3.8490    -2.7660     9.3140 ns         1 QPC      -0.196900
     23 O1           2.8660    -3.0400     7.3440 o          1 QPC      -0.648100
     24 C19         -2.1530     0.0050     1.2690 c          1 QPC       0.373700
     25 O2          -2.7260     0.1400     2.3330 o          1 QPC      -0.520100
     26 N5          -2.8630    -0.1390     0.1340 nz         1 QPC       0.212600
     27 C20          4.4150    -4.1150     9.2690 c3         1 QPC       0.056000
     28 C21          5.2350    -4.3670    10.5370 c3         1 QPC      -0.090000
     29 C22          6.3670    -3.3410    10.6240 c3         1 QPC       0.005900
     30 C23          4.3300    -4.2340    11.7640 c3         1 QPC       0.005900
     31 C24          5.8260    -5.7770    10.4910 c3         1 QPC       0.005900
     32 H1          -0.5490    -0.0000    -0.9340 h4         1 QPC      -0.045900
     33 H2           3.5700    -0.0010    -1.0700 ha         1 QPC       0.122500
     34 H3           6.0300     0.0010    -1.1520 ha         1 QPC       0.115500
     35 H4           7.3370     0.0010     0.9360 ha         1 QPC       0.111000
     36 H5           6.1910     0.0060     3.1170 ha         1 QPC       0.115500
     37 H6           3.7300     0.0080     3.2190 ha         1 QPC       0.122500
     38 H7          -1.5130     0.2040     3.7120 hn         1 QPC       0.324800
     39 H8          -1.4590    -0.9680     5.9260 ha         1 QPC       0.133500
     40 H9          -0.1260    -1.4170     7.9480 ha         1 QPC       0.113500
     41 H10          3.3510     0.1290     6.0070 ha         1 QPC       0.113500
     42 H11          2.0280     0.5630     3.9750 ha         1 QPC       0.133500
     43 H12          1.8630    -0.8390     9.2100 hc         1 QPC       0.035200
     44 H13          3.3040    -0.2070     8.4030 hc         1 QPC       0.035200
     45 H14          4.0390    -2.1690    10.0950 hn         1 QPC       0.183500
     46 H15         -3.8380    -0.1970     0.3550 hn         1 QPC       0.242800
     47 H16         -2.5770    -0.9750    -0.3360 hn         1 QPC       0.242800
     48 H17          3.6130    -4.8410     9.2070 h1         1 QPC       0.030700
     49 H18          5.0560    -4.2100     8.4010 h1         1 QPC       0.030700
     50 H19          6.7810    -3.1760     9.6360 hc         1 QPC       0.008811
     51 H20          5.9800    -2.4080    11.0130 hc         1 QPC       0.008811
     52 H21          7.1420    -3.7140    11.2830 hc         1 QPC       0.008811
     53 H22          4.7750    -4.7590    12.6000 hc         1 QPC       0.008811
     54 H23          3.3590    -4.6610    11.5450 hc         1 QPC       0.008811
     55 H24          4.2150    -3.1860    12.0150 hc         1 QPC       0.008811
     56 H25          6.4070    -5.9550    11.3880 hc         1 QPC       0.008811
     57 H26          5.0240    -6.5030    10.4310 hc         1 QPC       0.008811
     58 H27          6.4650    -5.8720     9.6220 hc         1 QPC       0.008811
     59 H53         -2.7120     0.6550    -0.4570 hn         1 QPC       0.242800
@<TRIPOS>BOND
     1     1     2 ar  
     2     1     6 ar  
     3     1    32 1   
     4     2     3 ar  
     5     3     4 ar  
     6     3     7 1   
     7     4     5 ar  
     8     5     6 ar  
     9     5    13 1   
    10     6    24 1   
    11     7     8 ar  
    12     7    12 ar  
    13     8     9 ar  
    14     8    33 1   
    15     9    10 ar  
    16     9    34 1   
    17    10    11 ar  
    18    10    35 1   
    19    11    12 ar  
    20    11    36 1   
    21    12    37 1   
    22    13    14 1   
    23    13    38 1   
    24    14    15 ar  
    25    14    19 ar  
    26    15    16 ar  
    27    15    39 1   
    28    16    17 ar  
    29    16    40 1   
    30    17    18 ar  
    31    17    20 1   
    32    18    19 ar  
    33    18    41 1   
    34    19    42 1   
    35    20    21 1   
    36    20    43 1   
    37    20    44 1   
    38    21    22 1   
    39    21    23 2   
    40    22    27 1   
    41    22    45 1   
    42    24    25 2   
    43    24    26 1   
    44    26    46 1   
    45    26    47 1   
    46    26    59 1   
    47    27    28 1   
    48    27    48 1   
    49    27    49 1   
    50    28    29 1   
    51    28    30 1   
    52    28    31 1   
    53    29    50 1   
    54    29    51 1   
    55    29    52 1   
    56    30    53 1   
    57    30    54 1   
    58    30    55 1   
    59    31    56 1   
    60    31    57 1   
    61    31    58 1   
@<TRIPOS>SUBSTRUCTURE
     1 QPC         1 TEMP              0 ****  ****    0 ROOT
