@<TRIPOS>MOLECULE
molecule
   38    41     1     0     0
SMALL
bcc


@<TRIPOS>ATOM
      1 CAK          0.0000     0.0000     0.0000 ca         1 QPP      -0.078000
      2 CAL          1.3950     0.0000     0.0000 ca         1 QPP      -0.149000
      3 CAM          2.0930     0.0000     1.2080 ca         1 QPP      -0.111000
      4 CAN          1.3950    -0.0010     2.4160 ca         1 QPP      -0.149000
      5 CAO          0.0010    -0.0010     2.4170 ca         1 QPP      -0.078000
      6 CAP         -0.7040    -0.0010     1.2080 cp         1 QPP      -0.157500
      7 C2          -2.1440    -0.0020     1.2090 cp         1 QPP       0.740500
      8 N1          -2.7430     0.5990     2.2500 nb         1 QPP      -0.712000
      9 N3          -2.7430    -0.6060     0.1620 nb         1 QPP      -0.724000
     10 C4          -4.0880    -0.6100     0.1570 ca         1 QPP       0.456600
     11 CAA         -4.7930    -1.2110    -0.8830 ca         1 QPP      -0.189300
     12 CAB         -6.1910    -1.2250    -0.9070 ca         1 QPP      -0.096000
     13 CAC         -6.9120    -0.6310     0.1220 ca         1 QPP      -0.144000
     14 CAD         -6.2330    -0.0250     1.1740 ca         1 QPP      -0.087000
     15 C5          -4.8280    -0.0140     1.1910 ca         1 QPP      -0.297600
     16 C6          -4.0880     0.5770     2.2120 ca         1 QPP       0.723200
     17 NAQ         -4.7660     1.1980     3.2910 nu         1 QPP      -0.881600
     18 CAR         -4.4300     1.3800     4.6410 cc         1 QPP       0.586200
     19 CAV         -5.3080     2.0410     5.4840 cc         1 QPP      -0.355300
     20 CAU         -4.6480     2.0220     6.6880 cd         1 QPP      -0.066600
     21 CAW         -5.0060     2.5500     8.0150 c3         1 QPP      -0.035800
     22 NAT         -3.4720     1.3720     6.4580 na         1 QPP      -0.027600
     23 NAS         -3.3170     0.9620     5.1880 nd         1 QPP      -0.500800
     24 HAK         -0.5400     0.0000    -0.9390 ha         1 QPP       0.151500
     25 HAL          1.9370     0.0010    -0.9380 ha         1 QPP       0.131000
     26 HAM          3.1760     0.0000     1.2080 ha         1 QPP       0.127000
     27 HAN          1.9370    -0.0010     3.3540 ha         1 QPP       0.131000
     28 HAO         -0.5390    -0.0020     3.3560 ha         1 QPP       0.151500
     29 HAA         -4.2460    -1.6780    -1.6930 ha         1 QPP       0.150000
     30 HAB         -6.7130    -1.6990    -1.7300 ha         1 QPP       0.137000
     31 HAC         -7.9950    -0.6410     0.1060 ha         1 QPP       0.136000
     32 HAD         -6.7880     0.4410     1.9800 ha         1 QPP       0.130000
     33 HAQ         -5.6560     1.5820     3.0410 hn         1 QPP       0.438800
     34 HAV         -6.0620     2.7590     5.1820 ha         1 QPP       0.166000
     35 HAW1        -4.3170     3.3400     8.2880 hc         1 QPP       0.055367
     36 HAW2        -6.0150     2.9450     7.9850 hc         1 QPP       0.055367
     37 HAW3        -4.9520     1.7540     8.7470 hc         1 QPP       0.055367
     38 HAT         -2.7880     1.2130     7.1710 hn         1 QPP       0.317700
@<TRIPOS>BOND
     1     1     2 ar
     2     1     6 ar
     3     1    24 1
     4     2     3 ar
     5     2    25 1
     6     3     4 ar
     7     3    26 1
     8     4     5 ar
     9     4    27 1
    10     5     6 ar
    11     5    28 1
    12     6     7 1
    13     7     8 ar
    14     7     9 ar
    15     8    16 ar
    16     9    10 ar
    17    10    11 ar
    18    10    15 ar
    19    11    12 ar
    20    11    29 1
    21    12    13 ar
    22    12    30 1
    23    13    14 ar
    24    13    31 1
    25    14    15 ar
    26    14    32 1
    27    15    16 ar
    28    16    17 1
    29    17    18 1
    30    17    33 1
    31    18    19 1
    32    18    23 2
    33    19    20 2
    34    19    34 1
    35    20    21 1
    36    20    22 1
    37    21    35 1
    38    21    36 1
    39    21    37 1
    40    22    23 1
    41    22    38 1
@<TRIPOS>SUBSTRUCTURE
     1 QPP         1 TEMP              0 ****  ****    0 ROOT
