@<TRIPOS>MOLECULE
molecule
   24    25     1     0     0
SMALL
bcc


@<TRIPOS>ATOM
      1 CAA          0.0000     0.0000     0.0000 c3         1 QPR      -0.195100
      2 CAB          2.4270     0.0100     4.8750 c3         1 QPR       0.032600
      3 CAD          6.0390     0.0000     1.0650 ca         1 QPR      -0.150000
      4 CAE          6.2470     0.0010     2.4360 ca         1 QPR      -0.112000
      5 CAF          4.7570    -0.0000     0.5570 ca         1 QPR      -0.073000
      6 CAG          5.1820     0.0030     3.3090 ca         1 QPR      -0.138000
      7 CAH          1.6590     0.0060     2.5060 cc         1 QPR      -0.043100
      8 CAI          1.5070     0.0000     0.0000 c          1 QPR       0.607300
      9 CAJ          2.2070     0.0020     1.2410 cd         1 QPR      -0.262400
     10 CAK          3.6720     0.0010     1.4280 ca         1 QPR      -0.052800
     11 CAL          3.8800     0.0040     2.8160 ca         1 QPR      -0.057200
     12 NAM          2.6420     0.0060     3.4260 na         1 QPR      -0.049400
     13 OAC          2.1130    -0.0020    -1.0520 o          1 QPR      -0.545100
     14 H1          -0.3610    -0.8830     0.5130 hc         1 QPR       0.056033
     15 H2          -0.3610    -0.0030    -1.0210 hc         1 QPR       0.056033
     16 H3          -0.3610     0.8860     0.5080 hc         1 QPR       0.056033
     17 H4           1.3630     0.0110     5.0820 h1         1 QPR       0.053033
     18 H5           2.8780    -0.8740     5.3090 h1         1 QPR       0.053033
     19 H6           2.8800     0.8950     5.3050 h1         1 QPR       0.053033
     20 H7           6.8860    -0.0020     0.3900 ha         1 QPR       0.132000
     21 H8           7.2590     0.0010     2.8240 ha         1 QPR       0.130000
     22 H9           4.5960    -0.0010    -0.5140 ha         1 QPR       0.156000
     23 H10          5.3570     0.0030     4.3780 ha         1 QPR       0.124000
     24 H11          0.5980     0.0080     2.7270 h4         1 QPR       0.169000
@<TRIPOS>BOND
     1     3     4 ar
     2     3     5 ar
     3     4     6 ar
     4     5    10 ar
     5     6    11 ar
     6    10    11 ar
     7    10     9 1
     8    11    12 1
     9    13     8 2
    10     9     8 1
    11     9     7 2
    12    12     2 1
    13    12     7 1
    14     8     1 1
    15     1    14 1
    16     1    15 1
    17     1    16 1
    18     2    17 1
    19     2    18 1
    20     2    19 1
    21     3    20 1
    22     4    21 1
    23     5    22 1
    24     6    23 1
    25     7    24 1
@<TRIPOS>SUBSTRUCTURE
     1 QPR         1 TEMP              0 ****  ****    0 ROOT
