@<TRIPOS>MOLECULE
molecule
   50    54     1     0     0
SMALL
bcc


@<TRIPOS>ATOM
      1 C1           0.0000     0.0000     0.0000 ca         1 QQ1      -0.125000
      2 C2           1.3830     0.0000     0.0000 ca         1 QQ1      -0.134000
      3 C6          -0.6980    -0.0010     1.1950 ca         1 QQ1      -0.134000
      4 C3           2.0760     0.0000     1.1930 ca         1 QQ1      -0.098500
      5 C5          -0.0160    -0.0010     2.3950 ca         1 QQ1      -0.098500
      6 C24         -2.9040     4.6580     5.3520 ca         1 QQ1       0.701900
      7 C10          3.5990    -0.4670     5.1930 cc         1 QQ1       0.423400
      8 C4           1.3790    -0.0010     2.4010 ca         1 QQ1      -0.103500
      9 C21         -0.7340     3.3350     4.4300 ca         1 QQ1      -0.136200
     10 C7           2.1160    -0.0020     3.6850 cd         1 QQ1       0.437800
     11 C8           1.7930     0.7290     4.8190 cc         1 QQ1      -0.265500
     12 C22         -1.3180     4.4020     3.6970 ca         1 QQ1       0.783200
     13 C26         -1.3330     2.9990     5.6490 ca         1 QQ1       0.478600
     14 C19          0.6620     1.6510     4.9830 cc         1 QQ1       0.497800
     15 C16          5.5960     4.1450     8.0250 c3         1 QQ1      -0.081400
     16 C15          4.1450     4.2950     8.4860 c3         1 QQ1      -0.076900
     17 C17          5.6240     3.5410     6.6200 c3         1 QQ1      -0.076900
     18 C14          3.4730     2.9200     8.5080 c3         1 QQ1      -0.077400
     19 C18          4.9530     2.1670     6.6410 c3         1 QQ1      -0.077400
     20 C13          3.5020     2.3160     7.1030 c3         1 QQ1      -0.090700
     21 N23         -2.3800     5.0170     4.1930 nb         1 QQ1      -0.758000
     22 N25         -2.4020     3.6780     6.0680 nb         1 QQ1      -0.712000
     23 N11          3.2230    -0.7120     3.9680 nd         1 QQ1      -0.691000
     24 N20          0.3280     2.5710     4.1360 nd         1 QQ1      -0.530100
     25 N9           2.7500     0.4150     5.7610 na         1 QQ1      -0.170900
     26 N28         -0.7840     4.7950     2.4820 nv         1 QQ1      -1.071500
     27 S27         -0.4350     1.6590     6.3580 ss         1 QQ1      -0.194500
     28 H1          -0.5390     0.0000    -0.9390 ha         1 QQ1       0.126000
     29 H2           1.9230     0.0010    -0.9390 ha         1 QQ1       0.128500
     30 H6          -1.7810    -0.0010     1.1890 ha         1 QQ1       0.128500
     31 H3           3.1590     0.0000     1.1910 ha         1 QQ1       0.136000
     32 H5          -0.5630    -0.0020     3.3300 ha         1 QQ1       0.136000
     33 H24         -3.7740     5.1880     5.7220 h5         1 QQ1       0.067100
     34 H10          4.4610    -0.9060     5.6800 h5         1 QQ1       0.069100
     35 H281        -0.0740     5.5000     2.4520 hn         1 QQ1       0.448800
     36 H282        -1.1080     4.3750     1.6330 hn         1 QQ1       0.448800
     37 H162         6.0700     5.1190     8.0070 hc         1 QQ1       0.042700
     38 H151         4.1260     4.7200     9.4830 hc         1 QQ1       0.045700
     39 H152         3.6140     4.9440     7.8010 hc         1 QQ1       0.045700
     40 H171         6.6520     3.4340     6.2950 hc         1 QQ1       0.045700
     41 H172         5.0910     4.1920     5.9370 hc         1 QQ1       0.045700
     42 H141         4.0070     2.2700     9.1910 hc         1 QQ1       0.044700
     43 H142         2.4450     3.0280     8.8330 hc         1 QQ1       0.044700
     44 H181         4.9720     1.7410     5.6450 hc         1 QQ1       0.044700
     45 H182         5.4840     1.5170     7.3270 hc         1 QQ1       0.044700
     46 H13          2.9730     2.9700     6.4200 hc         1 QQ1       0.070700
     47 C12          2.8300     0.9420     7.1250 c3         1 QQ1       0.037300
     48 H161         6.1260     3.4930     8.7080 hc         1 QQ1       0.042700
     49 H121         1.8320     1.0340     7.5360 h1         1 QQ1       0.068200
     50 H122         3.4120     0.2650     7.7390 h1         1 QQ1       0.068200
@<TRIPOS>BOND
     1     1     2 ar
     2     1     3 ar
     3     2     4 ar
     4     3     5 ar
     5     4     8 ar
     6     5     8 ar
     7     6    21 ar
     8     6    22 ar
     9     7    23 2
    10     7    25 1
    11     8    10 1
    12     9    12 ar
    13     9    13 ar
    14     9    24 1
    15    10    11 2
    16    10    23 1
    17    11    14 1
    18    11    25 1
    19    12    21 ar
    20    12    26 1
    21    13    22 ar
    22    13    27 1
    23    14    24 2
    24    14    27 1
    25    15    16 1
    26    15    17 1
    27    16    18 1
    28    17    19 1
    29    18    20 1
    30    19    20 1
    31    20    47 1
    32    47    25 1
    33     1    28 1
    34     2    29 1
    35     3    30 1
    36     4    31 1
    37     5    32 1
    38     6    33 1
    39     7    34 1
    40    26    35 1
    41    26    36 1
    42    15    48 1
    43    15    37 1
    44    16    38 1
    45    16    39 1
    46    17    40 1
    47    17    41 1
    48    18    42 1
    49    18    43 1
    50    19    44 1
    51    19    45 1
    52    20    46 1
    53    47    49 1
    54    47    50 1
@<TRIPOS>SUBSTRUCTURE
     1 QQ1         1 TEMP              0 ****  ****    0 ROOT
