@<TRIPOS>MOLECULE
molecule
   60    62     1     0     0
SMALL
bcc


@<TRIPOS>ATOM
      1 C22          0.0000     0.0000     0.0000 ca         1 QQ2      -0.176000
      2 C1           4.1720    -2.1300    -1.5780 ca         1 QQ2       0.752900
      3 C5           4.1690    -0.6960     0.2250 ca         1 QQ2       0.728200
      4 C4           5.5560    -0.6000     0.1410 ca         1 QQ2      -0.539600
      5 C3           6.2050    -1.3190    -0.8570 ca         1 QQ2       0.753200
      6 C11          9.4730    -3.1690    -4.1700 ca         1 QQ2      -0.118000
      7 C10          9.0550    -1.8570    -4.3010 ca         1 QQ2      -0.022300
      8 C9           8.4280    -1.2210    -3.2470 ca         1 QQ2      -0.101000
      9 C8           8.2180    -1.9000    -2.0540 ca         1 QQ2       0.141600
     10 C12          9.2640    -3.8480    -2.9840 ca         1 QQ2      -0.117000
     11 C16          8.3790    -0.5210     0.0020 c3         1 QQ2       0.155900
     12 C13          8.6430    -3.2170    -1.9230 ca         1 QQ2       0.028400
     13 C20          2.0740     0.0000     1.2030 ca         1 QQ2       0.050600
     14 N2           5.4820    -2.0660    -1.6910 nb         1 QQ2      -0.799000
     15 N6           3.5200    -1.4690    -0.6430 nb         1 QQ2      -0.827000
     16 N7           7.5860    -1.2580    -0.9850 nh         1 QQ2      -0.737700
     17 N18          7.9940    -1.5470     2.3690 n1         1 QQ2      -0.329800
     18 N19          3.4740     0.0010     1.2030 nu         1 QQ2      -0.743300
     19 C21          1.3800     0.0000     0.0000 ca         1 QQ2      -0.087500
     20 C23         -0.6940    -0.0010     1.2010 ca         1 QQ2       0.115100
     21 C24         -0.0020     0.0040     2.4030 ca         1 QQ2      -0.176000
     22 C25          1.3790    -0.0010     2.4040 ca         1 QQ2      -0.087500
     23 O26         -2.0540    -0.0020     1.2010 os         1 QQ2      -0.298900
     24 C27         -2.4680    -0.0020     2.5690 c3         1 QQ2       0.012400
     25 C28         -3.9960    -0.0020     2.6390 c3         1 QQ2       0.169100
     26 C29         -4.4390    -0.1290     4.0980 c3         1 QQ2       0.048800
     27 N30         -5.9020    -0.2500     4.1570 n3         1 QQ2      -0.631600
     28 C31         -6.2400    -0.6090     5.5400 c3         1 QQ2       0.069100
     29 C32         -6.4460     1.0950     3.9240 c3         1 QQ2       0.069100
     30 O33         -4.4980     1.2190     2.0930 oh         1 QQ2      -0.597800
     31 Cl1          8.3840    -4.0700    -0.4340 cl         1 QQ2      -0.105400
     32 H22         -0.6040    -0.0690    -0.8970 ha         1 QQ2       0.150000
     33 H1           3.5290    -2.8940    -1.9980 h5         1 QQ2       0.070100
     34 H4           5.8230     0.1490     0.8760 ha         1 QQ2       0.153000
     35 H11         10.2110    -3.5740    -4.8520 ha         1 QQ2       0.140000
     36 H9           7.8820    -0.2860    -3.2090 ha         1 QQ2       0.159000
     37 H12          9.8570    -4.7540    -2.9480 ha         1 QQ2       0.148000
     38 H161         9.1410    -1.2910     0.0400 h1         1 QQ2       0.225700
     39 H162         7.5610    -0.6750     0.6950 h1         1 QQ2       0.225700
     40 H19          3.8830     0.8320     1.5830 hn         1 QQ2       0.438800
     41 H21          1.9330     0.4790    -0.7990 ha         1 QQ2       0.148500
     42 H24         -0.6080    -0.2370     3.2680 ha         1 QQ2       0.150000
     43 H25          2.1690    -0.3700     3.0470 ha         1 QQ2       0.148500
     44 H271        -1.6800     0.4760     3.1380 h1         1 QQ2       0.094200
     45 H272        -2.8730    -1.0000     2.6840 h1         1 QQ2       0.094200
     46 H28         -4.3840    -0.8390     2.0700 h1         1 QQ2       0.053700
     47 H291        -3.7660     0.3200     4.8190 h1         1 QQ2       0.083200
     48 H292        -4.6800    -1.1830     4.1570 h1         1 QQ2       0.083200
     49 H311        -7.2230    -0.2230     5.7830 h1         1 QQ2       0.047367
     50 H312        -5.9300    -1.6330     5.7090 h1         1 QQ2       0.047367
     51 H313        -5.7680     0.2550     5.9910 h1         1 QQ2       0.047367
     52 H321        -7.4900     1.0610     3.6390 h1         1 QQ2       0.047367
     53 H322        -6.2310     1.3390     2.8910 h1         1 QQ2       0.047367
     54 H323        -6.3030     2.0000     4.5030 h1         1 QQ2       0.047367
     55 H33         -4.9600     0.9890     1.3040 ho         1 QQ2       0.400000
     56 H331         8.4640    -0.5250    -5.9810 hc         1 QQ2       0.042367
     57 H332         9.9120    -1.3850    -6.4370 hc         1 QQ2       0.042367
     58 H333         9.9130    -0.2460    -5.4770 hc         1 QQ2       0.042367
     59 C33          9.2840    -1.1200    -5.5950 c3         1 QQ2      -0.078800
     60 C17          8.1700    -1.1080     1.3360 c1         1 QQ2       0.100700
@<TRIPOS>BOND
     1     1    19 ar
     2     1    20 ar
     3     1    32 1
     4     2    14 ar
     5     2    15 ar
     6     2    33 1
     7     3     4 ar
     8     3    15 ar
     9     3    18 1
    10     4     5 ar
    11     4    34 1
    12     5    14 ar
    13     5    16 1
    14     6     7 ar
    15     6    10 ar
    16     6    35 1
    17     7     8 ar
    18     7    59 1
    19     8     9 ar
    20     8    36 1
    21     9    12 ar
    22     9    16 1
    23    10    12 ar
    24    10    37 1
    25    60    11 1
    26    60    17 3
    27    11    16 1
    28    11    38 1
    29    11    39 1
    30    12    31 1
    31    13    18 1
    32    13    19 ar
    33    13    22 ar
    34    18    40 1
    35    19    41 1
    36    20    21 ar
    37    20    23 1
    38    21    22 ar
    39    21    42 1
    40    22    43 1
    41    23    24 1
    42    24    25 1
    43    24    44 1
    44    24    45 1
    45    25    26 1
    46    25    30 1
    47    25    46 1
    48    26    27 1
    49    26    47 1
    50    26    48 1
    51    27    28 1
    52    27    29 1
    53    28    49 1
    54    28    50 1
    55    28    51 1
    56    29    52 1
    57    29    53 1
    58    29    54 1
    59    30    55 1
    60    59    56 1
    61    59    57 1
    62    59    58 1
@<TRIPOS>SUBSTRUCTURE
     1 QQ2         1 TEMP              0 ****  ****    0 ROOT
