@<TRIPOS>MOLECULE
QQ2
   60    63     1     0     0
SMALL
bcc


@<TRIPOS>ATOM
      1 C22          0.0000     0.0000     0.0000 ca         1 QQ2      -0.162500
      2 C1           4.1720    -2.1300    -1.5780 c2         1 QQ2       0.047000
      3 C5           4.1690    -0.6960     0.2250 c2         1 QQ2       0.031000
      4 C4           5.5560    -0.6000     0.1410 c2         1 QQ2      -0.401000
      5 C3           6.2050    -1.3190    -0.8570 c2         1 QQ2       0.072000
      6 C11          9.4730    -3.1690    -4.1700 ca         1 QQ2      -0.090000
      7 C10          9.0550    -1.8570    -4.3010 ca         1 QQ2      -0.010000
      8 C9           8.4280    -1.2210    -3.2470 ca         1 QQ2      -0.070000
      9 C8           8.2180    -1.9000    -2.0540 ca         1 QQ2      -0.076000
     10 C12          9.2640    -3.8480    -2.9840 ca         1 QQ2      -0.091000
     11 C16          8.3790    -0.5210     0.0020 c3         1 QQ2      -0.124000
     12 C13          8.6430    -3.2170    -1.9230 ca         1 QQ2      -0.108000
     13 C20          2.0740     0.0000     1.2030 ca         1 QQ2      -0.189000
     14 N2           5.4820    -2.0660    -1.6910 n2         1 QQ2      -0.170000
     15 N6           3.5200    -1.4690    -0.6430 n2         1 QQ2      -0.205000
     16 N7           7.5860    -1.2580    -0.9850 nh         1 QQ2       0.066000
     17 N18          7.9940    -1.5470     2.3690 n1         1 QQ2      -0.013000
     18 N19          3.4740     0.0010     1.2030 nu         1 QQ2       0.173000
     19 C21          1.3800     0.0000     0.0000 ca         1 QQ2      -0.046000
     20 C23         -0.6940    -0.0010     1.2010 ca         1 QQ2       0.086000
     21 C24         -0.0020     0.0040     2.4030 ca         1 QQ2      -0.162500
     22 C25          1.3790    -0.0010     2.4040 ca         1 QQ2      -0.046000
     23 O26         -2.0540    -0.0020     1.2010 os         1 QQ2      -0.158000
     24 C27         -2.4680    -0.0020     2.5690 c3         1 QQ2      -0.118000
     25 C28         -3.9960    -0.0020     2.6390 c3         1 QQ2       0.103000
     26 C29         -4.4390    -0.1290     4.0980 c3         1 QQ2      -0.206000
     27 N30         -5.9020    -0.2500     4.1570 n3         1 QQ2      -0.021000
     28 C31         -6.2400    -0.6090     5.5400 c3         1 QQ2      -0.163000
     29 C32         -6.4460     1.0950     3.9240 c3         1 QQ2      -0.163000
     30 O33         -4.4980     1.2190     2.0930 oh         1 QQ2      -0.310000
     31 Cl1          8.3840    -4.0700    -0.4340 cl         1 QQ2       0.060000
     32 H22         -0.6040    -0.0690    -0.8970 ha         1 QQ2       0.130000
     33 H1           3.5290    -2.8940    -1.9980 h5         1 QQ2       0.141000
     34 H4           5.8230     0.1490     0.8760 ha         1 QQ2       0.150000
     35 H11         10.2110    -3.5740    -4.8520 ha         1 QQ2       0.111000
     36 H9           7.8820    -0.2860    -3.2090 ha         1 QQ2       0.126000
     37 H12          9.8570    -4.7540    -2.9480 ha         1 QQ2       0.119000
     38 H161         9.1410    -1.2910     0.0400 h1         1 QQ2       0.139000
     39 H162         7.5610    -0.6750     0.6950 DU         1 QQ2       0.332000
     40 H19          3.8830     0.8320     1.5830 hn         1 QQ2       0.073000
     41 H21          1.9330     0.4790    -0.7990 ha         1 QQ2       0.117500
     42 H24         -0.6080    -0.2370     3.2680 ha         1 QQ2       0.130000
     43 H25          2.1690    -0.3700     3.0470 ha         1 QQ2       0.117500
     44 H271        -1.6800     0.4760     3.1380 h1         1 QQ2       0.112500
     45 H272        -2.8730    -1.0000     2.6840 h1         1 QQ2       0.112500
     46 H28         -4.3840    -0.8390     2.0700 h1         1 QQ2       0.057000
     47 H291        -3.7660     0.3200     4.8190 h1         1 QQ2       0.100000
     48 H292        -4.6800    -1.1830     4.1570 h1         1 QQ2       0.100000
     49 H311        -7.2230    -0.2230     5.7830 h1         1 QQ2       0.057333
     50 H312        -5.9300    -1.6330     5.7090 h1         1 QQ2       0.057333
     51 H313        -5.7680     0.2550     5.9910 h1         1 QQ2       0.057333
     52 H321        -7.4900     1.0610     3.6390 h1         1 QQ2       0.057333
     53 H322        -6.2310     1.3390     2.8910 h1         1 QQ2       0.057333
     54 H323        -6.3030     2.0000     4.5030 h1         1 QQ2       0.057333
     55 H33         -4.9600     0.9890     1.3040 ho         1 QQ2       0.190000
     56 H331         8.4640    -0.5250    -5.9810 hc         1 QQ2       0.044333
     57 H332         9.9120    -1.3850    -6.4370 hc         1 QQ2       0.044333
     58 H333         9.9130    -0.2460    -5.4770 hc         1 QQ2       0.044333
     59 C33          9.2840    -1.1200    -5.5950 c3         1 QQ2      -0.093000
     60 C17          8.1700    -1.1080     1.3360 c2         1 QQ2      -0.278000
@<TRIPOS>BOND
     1     1    19 1   
     2     1    20 1   
     3     1    32 1   
     4     2    14 1   
     5     2    15 1   
     6     2    33 1   
     7     3     4 1   
     8     3    15 1   
     9     3    18 1   
    10     4     5 1   
    11     4    34 1   
    12     5    14 1   
    13     5    16 1   
    14     6     7 1   
    15     6    10 1   
    16     6    35 1   
    17     7     8 1   
    18     7    59 1   
    19     8     9 1   
    20     8    36 1   
    21     9    12 1   
    22     9    16 1   
    23    10    12 1   
    24    10    37 1   
    25    11    16 1   
    26    11    38 1   
    27    11    39 1   
    28    11    60 1   
    29    12    31 1   
    30    13    18 1   
    31    13    19 1   
    32    13    22 1   
    33    17    60 1   
    34    18    40 1   
    35    19    41 1   
    36    20    21 1   
    37    20    23 1   
    38    21    22 1   
    39    21    42 1   
    40    22    43 1   
    41    23    24 1   
    42    24    25 1   
    43    24    44 1   
    44    24    45 1   
    45    25    26 1   
    46    25    30 1   
    47    25    46 1   
    48    26    27 1   
    49    26    47 1   
    50    26    48 1   
    51    27    28 1   
    52    27    29 1   
    53    28    49 1   
    54    28    50 1   
    55    28    51 1   
    56    29    52 1   
    57    29    53 1   
    58    29    54 1   
    59    30    55 1   
    60    39    60 1   
    61    56    59 1   
    62    57    59 1   
    63    58    59 1   
@<TRIPOS>SUBSTRUCTURE
     1 QQ2         1 TEMP              0 ****  ****    0 ROOT
