@<TRIPOS>MOLECULE
QQ3
   41    43     1     0     0
SMALL
bcc


@<TRIPOS>ATOM
      1 C8           0.0000     0.0000     0.0000 c3         1 QQ3       0.006900
      2 C7           1.5300     0.0000     0.0000 c3         1 QQ3      -0.034400
      3 C6           2.0410     0.0000     1.4420 c3         1 QQ3      -0.068400
      4 C5           3.5710     0.0000     1.4420 c3         1 QQ3       0.044700
      5 C12          4.0820    -0.1260     2.8790 c3         1 QQ3      -0.167400
      6 C18          5.5830    -0.2500     2.8690 c          1 QQ3       0.973600
      7 O4           6.2550    -0.3720     4.0250 o          1 QQ3      -0.896800
      8 O3           6.1840    -0.2380     1.8200 o          1 QQ3      -0.896800
      9 N1           4.0590     1.2520     0.8580 n          1 QQ3      -0.068400
     10 C4           3.7920     2.4770     1.3450 c          1 QQ3       0.662100
     11 O1           3.1170     2.7170     2.3260 o          1 QQ3      -0.636500
     12 C3           4.4570     3.4810     0.4900 ca         1 QQ3      -0.278900
     13 C10          4.5390     4.8770     0.4940 ca         1 QQ3       0.450600
     14 C14          3.8310     5.6550     1.5720 c3         1 QQ3      -0.050400
     15 N2           5.2240     5.5200    -0.4210 nb         1 QQ3      -0.588000
     16 C11          5.8740     4.8870    -1.4010 ca         1 QQ3       0.386600
     17 C15          6.5980     5.6080    -2.3680 ca         1 QQ3      -0.162300
     18 C17          7.2540     4.9420    -3.3570 ca         1 QQ3      -0.090000
     19 C16          7.2200     3.5510    -3.4330 ca         1 QQ3      -0.123000
     20 C13          6.5300     2.8170    -2.5170 ca         1 QQ3      -0.055000
     21 C9           5.8420     3.4680    -1.4810 ca         1 QQ3      -0.106300
     22 C1           5.1160     2.7550    -0.5120 ca         1 QQ3      -0.085600
     23 C2           4.8400     1.3310    -0.2360 c          1 QQ3       0.663100
     24 O2           5.2480     0.3910    -0.8860 o          1 QQ3      -0.589500
     25 H81C        -0.3610     0.8650     0.5430 hc         1 QQ3      -0.004967
     26 H82C        -0.3610    -0.9030     0.4770 hc         1 QQ3      -0.004967
     27 H83C        -0.3610     0.0380    -1.0210 hc         1 QQ3      -0.004967
     28 H71C         1.8910     0.8840    -0.5110 hc         1 QQ3       0.011700
     29 H72C         1.8910    -0.8840    -0.5110 hc         1 QQ3       0.011700
     30 H61C         1.6800     0.8840     1.9520 hc         1 QQ3       0.032200
     31 H62C         1.6800    -0.8850     1.9520 hc         1 QQ3       0.032200
     32 H5           3.9320    -0.8370     0.8560 h1         1 QQ3       0.071700
     33 H121         3.6500    -1.0060     3.3400 hc         1 QQ3       0.031700
     34 H122         3.7960     0.7540     3.4420 hc         1 QQ3       0.031700
     35 H141         2.7680     5.4500     1.5260 hc         1 QQ3       0.019367
     36 H142         4.0010     6.7150     1.4240 hc         1 QQ3       0.019367
     37 H143         4.2140     5.3610     2.5420 hc         1 QQ3       0.019367
     38 H15          6.6350     6.6900    -2.3240 ha         1 QQ3       0.111000
     39 H17          7.8100     5.5030    -4.0980 ha         1 QQ3       0.093000
     40 H16          7.7510     3.0470    -4.2320 ha         1 QQ3       0.100000
     41 H13          6.5110     1.7370    -2.5870 ha         1 QQ3       0.137000
@<TRIPOS>BOND
     1     1     2 1   
     2     1    25 1   
     3     1    26 1   
     4     1    27 1   
     5     2     3 1   
     6     2    28 1   
     7     2    29 1   
     8     3     4 1   
     9     3    30 1   
    10     3    31 1   
    11     4     5 1   
    12     4     9 1   
    13     4    32 1   
    14     5     6 1   
    15     5    33 1   
    16     5    34 1   
    17     6     7 1   
    18     6     8 1   
    19     9    10 1   
    20     9    23 1   
    21    10    11 2   
    22    10    12 1   
    23    12    13 ar  
    24    12    22 ar  
    25    13    14 1   
    26    13    15 ar  
    27    14    35 1   
    28    14    36 1   
    29    14    37 1   
    30    15    16 ar  
    31    16    17 ar  
    32    16    21 ar  
    33    17    18 ar  
    34    17    38 1   
    35    18    19 ar  
    36    18    39 1   
    37    19    20 ar  
    38    19    40 1   
    39    20    21 ar  
    40    20    41 1   
    41    21    22 ar  
    42    22    23 1   
    43    23    24 2   
@<TRIPOS>SUBSTRUCTURE
     1 QQ3         1 TEMP              0 ****  ****    0 ROOT
