@<TRIPOS>MOLECULE
QQH
   47    49     1     0     0
SMALL
bcc


@<TRIPOS>ATOM
      1 C01          0.0000     0.0000     0.0000 c3         1 QQH       0.057200
      2 C02          1.5070     0.0000     0.0000 ca         1 QQH      -0.072300
      3 C03          2.1980     0.0000     1.1970 ca         1 QQH      -0.084000
      4 C04          3.5800    -0.0000     1.1970 ca         1 QQH      -0.094000
      5 C05          4.2710    -0.0000    -0.0010 ca         1 QQH      -0.100000
      6 C06          3.5810     0.0010    -1.1980 ca         1 QQH      -0.106300
      7 C07          4.3340     0.0010    -2.5020 c3         1 QQH       0.052100
      8 C08          4.4060     1.4070    -3.0400 cc         1 QQH      -0.016200
      9 C09          4.1070     2.4880    -2.2360 cd         1 QQH      -0.195200
     10 C10          4.1870     3.7760    -2.7550 c          1 QQH       0.581700
     11 O11          3.9210     4.7240    -2.0330 o          1 QQH      -0.570500
     12 N12          4.5540     4.0070    -4.0510 n          1 QQH       0.246000
     13 C13          4.8470     2.9440    -4.8410 cd         1 QQH       0.097200
     14 S14          5.2920     3.4990    -6.4630 ss         1 QQH      -0.363700
     15 C15          5.0910     5.2730    -6.1270 c3         1 QQH       0.167700
     16 C16          4.6590     5.3300    -4.6640 c3         1 QQH      -0.179300
     17 C17          3.3170     6.0120    -4.5810 c          1 QQH       0.966600
     18 O18          3.1830     7.2820    -4.9940 o          1 QQH      -0.830800
     19 O19          2.3620     5.4150    -4.1430 o          1 QQH      -0.830800
     20 C20          4.7790     1.6470    -4.3570 cc         1 QQH      -0.468000
     21 N21          5.0930     0.5760    -5.1970 nx         1 QQH       0.312800
     22 C22          6.0170    -0.3340    -4.5060 c3         1 QQH      -0.048400
     23 C23          3.8640    -0.1490    -5.5490 c3         1 QQH      -0.048400
     24 C24          2.1970    -0.0050    -1.1980 ca         1 QQH      -0.070300
     25 C25          1.4440    -0.0100    -2.5030 c3         1 QQH       0.040200
     26 H011        -0.3610     0.0330     1.0210 hc         1 QQH       0.014033
     27 H012        -0.3610     0.8670    -0.5390 hc         1 QQH       0.014033
     28 H013        -0.3610    -0.9010    -0.4810 hc         1 QQH       0.014033
     29 H031         1.6570     0.0000     2.1350 ha         1 QQH       0.111000
     30 H041         4.1210    -0.0010     2.1350 ha         1 QQH       0.107000
     31 H051         5.3550    -0.0010    -0.0000 ha         1 QQH       0.103000
     32 H071         3.8210    -0.6330    -3.2150 hc         1 QQH       0.027200
     33 H072         5.3370    -0.3750    -2.3400 hc         1 QQH       0.027200
     34 H091         3.9170     2.3400    -1.1800 ha         1 QQH       0.163000
     35 H151         4.3080     5.6780    -6.7570 h1         1 QQH       0.081700
     36 H152         6.0420     5.7780    -6.2480 h1         1 QQH       0.081700
     37 H161         5.3860     5.9120    -4.1100 h1         1 QQH       0.082700
     38 H221         6.5060     0.1950    -3.6970 hx         1 QQH       0.074367
     39 H222         6.7620    -0.6920    -5.2060 hx         1 QQH       0.074367
     40 H223         5.4640    -1.1750    -4.1060 hx         1 QQH       0.074367
     41 H231         3.0030     0.4340    -5.2450 hx         1 QQH       0.074367
     42 H232         3.8330    -0.3080    -6.6200 hx         1 QQH       0.074367
     43 H233         3.8510    -1.1050    -5.0410 hx         1 QQH       0.074367
     44 H253         1.5890     0.9370    -3.0080 hc         1 QQH       0.015700
     45 H252         0.3880    -0.1580    -2.3100 hc         1 QQH       0.015700
     46 H251         1.8120    -0.8140    -3.1290 hc         1 QQH       0.015700
     47 H211         5.5270     0.9210    -6.0300 hn         1 QQH       0.235800
@<TRIPOS>BOND
     1     1     2 1   
     2     1    26 1   
     3     1    27 1   
     4     1    28 1   
     5     2     3 ar  
     6     2    24 ar  
     7     3     4 ar  
     8     3    29 1   
     9     4     5 ar  
    10     4    30 1   
    11     5     6 ar  
    12     5    31 1   
    13     6     7 1   
    14     6    24 ar  
    15     7     8 1   
    16     7    32 1   
    17     7    33 1   
    18     8     9 2   
    19     8    20 1   
    20     9    10 1   
    21     9    34 1   
    22    10    11 2   
    23    10    12 1   
    24    12    13 1   
    25    12    16 1   
    26    13    14 1   
    27    13    20 2   
    28    14    15 1   
    29    15    16 1   
    30    15    35 1   
    31    15    36 1   
    32    16    17 1   
    33    16    37 1   
    34    17    18 1   
    35    17    19 1   
    36    20    21 1   
    37    21    22 1   
    38    21    23 1   
    39    21    47 1   
    40    22    38 1   
    41    22    39 1   
    42    22    40 1   
    43    23    41 1   
    44    23    42 1   
    45    23    43 1   
    46    24    25 1   
    47    25    44 1   
    48    25    45 1   
    49    25    46 1   
@<TRIPOS>SUBSTRUCTURE
     1 QQH         1 TEMP              0 ****  ****    0 ROOT
