@<TRIPOS>MOLECULE
QQQ
   27    28     1     0     0
SMALL
bcc


@<TRIPOS>ATOM
      1 O11         0.2060    0.3000    0.4860 o         1 QQQ     -0.728200
      2 S10         1.4790   -0.0490    0.0050 s6        1 QQQ      1.406900
      3 O13         2.4180   -0.2500    1.0320 o         1 QQQ     -0.728200
      4 O12         1.4940   -1.0020   -1.0120 o         1 QQQ     -0.728200
      5 C8          2.0580    1.5420   -0.7370 cc        1 QQQ      0.342200
      6 N7          2.4150    1.7080   -2.0200 nd        1 QQQ     -0.551100
      7 C3          2.7850    3.0580   -2.1570 ca        1 QQQ      0.063400
      8 C4          3.2380    3.7890   -3.2620 ca        1 QQQ     -0.078000
      9 C5          3.5320    5.1350   -3.0930 ca        1 QQQ     -0.178000
     10 C6          3.3850    5.7690   -1.8480 ca        1 QQQ     -0.141000
     11 C1          2.9390    5.0840   -0.7280 ca        1 QQQ     -0.138000
     12 C2          2.6340    3.7240   -0.8680 ca        1 QQQ     -0.074200
     13 N9          2.1730    2.7390    0.0090 na        1 QQQ     -0.121300
     14 C14         1.8680    2.8950    1.4120 c3        1 QQQ      0.053000
     15 C15         3.0840    3.2960    2.2510 c3        1 QQQ     -0.105100
     16 C16         0.7280    3.8830    1.6720 c3        1 QQQ     -0.105100
     17 H4          3.3560    3.2990   -4.2370 ha        1 QQQ      0.132000
     18 H5          3.8890    5.7230   -3.9500 ha        1 QQQ      0.109000
     19 H6          3.6300    6.8380   -1.7630 ha        1 QQQ      0.108000
     20 H1          2.8280    5.5930    0.2390 ha        1 QQQ      0.121000
     21 H14         1.5240    1.8710    1.7740 h1        1 QQQ      0.111700
     22 H15         2.7780    3.3440    3.3230 hc        1 QQQ      0.038367
     23 H15A        3.8970    2.5380    2.1450 hc        1 QQQ      0.038367
     24 H15B        3.4770    4.2940    1.9430 hc        1 QQQ      0.038367
     25 H16         0.9990    4.9110    1.3350 hc        1 QQQ      0.038367
     26 H16A       -0.1980    3.5580    1.1390 hc        1 QQQ      0.038367
     27 H16B        0.5190    3.9060    2.7680 hc        1 QQQ      0.038367
@<TRIPOS>BOND
     1    1    2 1   
     2    2    3 1   
     3    2    4 1   
     4    2    5 1   
     5    5    6 2   
     6    5   13 1   
     7    6    7 1   
     8    7    8 ar  
     9    7   12 ar  
    10    8    9 ar  
    11    8   17 1   
    12    9   10 ar  
    13    9   18 1   
    14   10   11 ar  
    15   10   19 1   
    16   11   12 ar  
    17   11   20 1   
    18   12   13 1   
    19   13   14 1   
    20   14   15 1   
    21   14   16 1   
    22   14   21 1   
    23   15   22 1   
    24   15   23 1   
    25   15   24 1   
    26   16   25 1   
    27   16   26 1   
    28   16   27 1   
@<TRIPOS>SUBSTRUCTURE
     1 QQQ         1 TEMP              0 ****  ****    0 ROOT
