@<TRIPOS>MOLECULE
molecule
   27    28     1     0     0
SMALL
bcc


@<TRIPOS>ATOM
      1 O11          0.0000     0.0000     0.0000 o          1 QQQ      -0.689200
      2 S10          1.5220     0.0000     0.0000 s6         1 QQQ       1.252900
      3 O13          1.9220     0.0000     1.3640 o          1 QQQ      -0.689200
      4 O12          1.9240    -0.9990    -0.9270 o          1 QQQ      -0.689200
      5 C8           2.0440     1.5420    -0.6720 cc         1 QQQ       0.313200
      6 N7           2.3700     1.7400    -1.9150 nd         1 QQQ      -0.548100
      7 C3           2.7220     3.0390    -2.0940 ca         1 QQQ       0.079400
      8 C4           3.1480     3.7800    -3.2000 ca         1 QQQ      -0.070000
      9 C5           3.4370     5.1080    -3.0590 ca         1 QQQ      -0.170000
     10 C6           3.3120     5.7330    -1.8270 ca         1 QQQ      -0.140000
     11 C1           2.8950     5.0220    -0.7220 ca         1 QQQ      -0.126000
     12 C2           2.5960     3.6730    -0.8450 ca         1 QQQ      -0.095200
     13 N9           2.1600     2.7000     0.0320 na         1 QQQ      -0.103300
     14 C14          1.8780     2.8810     1.4590 c3         1 QQQ       0.041000
     15 C15          3.1710     3.2370     2.1940 c3         1 QQQ      -0.102100
     16 C16          0.8610     4.0110     1.6370 c3         1 QQQ      -0.102100
     17 H4           3.2490     3.3020    -4.1660 ha         1 QQQ       0.130000
     18 H5           3.7660     5.6790    -3.9190 ha         1 QQQ       0.112000
     19 H6           3.5450     6.7870    -1.7320 ha         1 QQQ       0.112000
     20 H1           2.7990     5.5160     0.2370 ha         1 QQQ       0.117000
     21 H14          1.4720     1.9630     1.8660 h1         1 QQQ       0.134700
     22 H15          3.9970     2.6890     1.7570 hc         1 QQQ       0.038700
     23 H15A         3.0760     2.9730     3.2400 hc         1 QQQ       0.038700
     24 H15B         3.3560     4.3010     2.1050 hc         1 QQQ       0.038700
     25 H16          0.2930     3.8450     2.5440 hc         1 QQQ       0.038700
     26 H16A         0.1890     4.0300     0.7880 hc         1 QQQ       0.038700
     27 H16B         1.3830     4.9580     1.7060 hc         1 QQQ       0.038700
@<TRIPOS>BOND
     1     2     1 1
     2     3     2 1
     3     5     2 1
     4     2     4 1
     5     6     5 2
     6     5    13 1
     7     7     6 1
     8     8     7 ar
     9     7    12 ar
    10     8     9 ar
    11     8    17 1
    12     9    10 ar
    13     9    18 1
    14    10    11 ar
    15    10    19 1
    16    12    11 ar
    17    11    20 1
    18    12    13 1
    19    13    14 1
    20    14    16 1
    21    14    15 1
    22    14    21 1
    23    15    22 1
    24    15    23 1
    25    15    24 1
    26    16    25 1
    27    16    26 1
    28    16    27 1
@<TRIPOS>SUBSTRUCTURE
     1 QQQ         1 TEMP              0 ****  ****    0 ROOT
