@<TRIPOS>MOLECULE
molecule
   53    55     1     0     0
SMALL
bcc


@<TRIPOS>ATOM
      1 O12          0.0000     0.0000     0.0000 o          1 QQV      -0.615300
      2 S1           1.4210     0.0000     0.0000 sy         1 QQV       1.199300
      3 O11          2.1530    -0.9120    -0.8070 o          1 QQV      -0.615300
      4 C13          1.8560     1.5860    -0.6320 ca         1 QQV      -0.296500
      5 C24          3.0680     1.7670    -1.2710 ca         1 QQV      -0.030500
      6 C27          3.4100     3.0120    -1.7670 ca         1 QQV      -0.149500
      7 C28          2.5380     4.0750    -1.6250 ca         1 QQV      -0.073000
      8 C26          1.3250     3.8940    -0.9860 ca         1 QQV      -0.149500
      9 C25          0.9820     2.6490    -0.4940 ca         1 QQV      -0.030500
     10 C4           2.0580     0.0000     1.6990 c3         1 QQV      -0.196900
     11 C7           3.5720     0.2980     1.7080 c3         1 QQV      -0.053400
     12 C6           1.9460    -1.4150     2.3200 c3         1 QQV      -0.057400
     13 C2           3.0250    -1.3880     3.4300 c3         1 QQV      -0.126700
     14 C5           4.1870    -0.5840     2.8090 c3         1 QQV      -0.131700
     15 C9           4.8370     0.2790     3.8590 c          1 QQV       0.672100
     16 N17          5.8610     1.0900     3.5250 ns         1 QQV      -0.585900
     17 C21          6.4940     1.9280     4.5470 c3         1 QQV       0.064700
     18 C14          7.6030     2.7330     3.9200 c2         1 QQV       0.414200
     19 N10          7.6120     4.0070     4.0320 n2         1 QQV      -0.774100
     20 O16          4.4390     0.2460     5.0040 o          1 QQV      -0.607100
     21 C3           3.4730    -2.7870     3.7650 c          1 QQV       0.678100
     22 O15          4.6300    -3.1100     3.6000 o          1 QQV      -0.610100
     23 N8           2.5860    -3.6790     4.2490 n          1 QQV      -0.490800
     24 C19          2.9990    -5.0520     4.5840 c3         1 QQV       0.065000
     25 C23          2.5110    -5.3720     6.0020 c3         1 QQV       0.120400
     26 O18          1.1130    -5.0890     6.0930 os         1 QQV      -0.418600
     27 C22          0.7790    -3.7160     5.8830 c3         1 QQV       0.120400
     28 C20          1.1780    -3.3100     4.4640 c3         1 QQV       0.065000
     29 HXT          8.3930     2.2320     3.3740 h4         1 QQV      -0.039200
     30 H4           1.5290     0.7220     2.3080 h1         1 QQV       0.111700
     31 H24          3.7510     0.9340    -1.3820 ha         1 QQV       0.149500
     32 H25          0.0320     2.5070     0.0060 ha         1 QQV       0.149500
     33 H27          4.3600     3.1540    -2.2670 ha         1 QQV       0.138000
     34 H28          2.8060     5.0510    -2.0120 ha         1 QQV       0.135000
     35 H26          0.6410     4.7270    -0.8760 ha         1 QQV       0.138000
     36 H71C         3.7410     1.3440     1.9340 hc         1 QQV       0.060700
     37 H72C         4.0040     0.0450     0.7470 hc         1 QQV       0.060700
     38 H61C         2.1740    -2.1750     1.5830 hc         1 QQV       0.068700
     39 H62C         0.9620    -1.5670     2.7470 hc         1 QQV       0.068700
     40 H5           4.9130    -1.2600     2.3760 hc         1 QQV       0.107700
     41 H2           2.6470    -0.8830     4.3110 hc         1 QQV       0.107700
     42 H17          6.2140     1.0900     2.5890 hn         1 QQV       0.314500
     43 H211         6.9010     1.2990     5.3290 h1         1 QQV       0.075200
     44 H212         5.7560     2.5990     4.9700 h1         1 QQV       0.075200
     45 H10          8.3490     4.5410     3.6160 hn         1 QQV       0.401400
     46 H191         4.0790    -5.1260     4.5470 h1         1 QQV       0.065200
     47 H192         2.5560    -5.7470     3.8820 h1         1 QQV       0.065200
     48 H201         1.0620    -2.2390     4.3470 h1         1 QQV       0.065200
     49 H202         0.5530    -3.8300     3.7480 h1         1 QQV       0.065200
     50 H231         3.0500    -4.7600     6.7150 h1         1 QQV       0.057450
     51 H232         2.6820    -6.4200     6.2140 h1         1 QQV       0.057450
     52 H221         1.3130    -3.1010     6.5970 h1         1 QQV       0.057450
     53 H222        -0.2890    -3.5810     6.0090 h1         1 QQV       0.057450
@<TRIPOS>BOND
     1     1     2 2
     2     2     3 2
     3     2     4 1
     4     2    10 1
     5     4     5 ar
     6     4     9 ar
     7     5     6 ar
     8     6     7 ar
     9     7     8 ar
    10     8     9 ar
    11    10    11 1
    12    10    12 1
    13    11    14 1
    14    12    13 1
    15    13    14 1
    16    13    21 1
    17    14    15 1
    18    15    16 1
    19    15    20 2
    20    16    17 1
    21    17    18 1
    22    18    19 2
    23    18    29 1
    24    21    22 2
    25    21    23 1
    26    23    24 1
    27    23    28 1
    28    24    25 1
    29    25    26 1
    30    26    27 1
    31    27    28 1
    32    10    30 1
    33     5    31 1
    34     9    32 1
    35     6    33 1
    36     7    34 1
    37     8    35 1
    38    11    36 1
    39    11    37 1
    40    12    38 1
    41    12    39 1
    42    14    40 1
    43    13    41 1
    44    16    42 1
    45    17    43 1
    46    17    44 1
    47    19    45 1
    48    24    46 1
    49    24    47 1
    50    28    48 1
    51    28    49 1
    52    25    50 1
    53    25    51 1
    54    27    52 1
    55    27    53 1
@<TRIPOS>SUBSTRUCTURE
     1 QQV         1 TEMP              0 ****  ****    0 ROOT
