@<TRIPOS>MOLECULE
QQV
   53    55     1     0     0
SMALL
bcc


@<TRIPOS>ATOM
      1 O12          0.0000     0.0000     0.0000 o          1 QQV      -0.582300
      2 S1           1.4210     0.0000     0.0000 sy         1 QQV       0.879300
      3 O11          2.1530    -0.9120    -0.8070 o          1 QQV      -0.582300
      4 C13          1.8560     1.5860    -0.6320 ca         1 QQV      -0.156500
      5 C24          3.0680     1.7670    -1.2710 ca         1 QQV       0.000000
      6 C27          3.4100     3.0120    -1.7670 ca         1 QQV      -0.131500
      7 C28          2.5380     4.0750    -1.6250 ca         1 QQV      -0.047000
      8 C26          1.3250     3.8940    -0.9860 ca         1 QQV      -0.131500
      9 C25          0.9820     2.6490    -0.4940 ca         1 QQV       0.000000
     10 C4           2.0580     0.0000     1.6990 c3         1 QQV      -0.019900
     11 C7           3.5720     0.2980     1.7080 c3         1 QQV       0.003600
     12 C6           1.9460    -1.4150     2.3200 c3         1 QQV       0.002600
     13 C2           3.0250    -1.3880     3.4300 c3         1 QQV      -0.119700
     14 C5           4.1870    -0.5840     2.8090 c3         1 QQV      -0.116700
     15 C9           4.8370     0.2790     3.8590 c          1 QQV       0.586100
     16 N17          5.8610     1.0900     3.5250 ns         1 QQV      -0.190900
     17 C21          6.4940     1.9280     4.5470 c3         1 QQV      -0.039300
     18 C14          7.6030     2.7330     3.9200 c2         1 QQV       0.372200
     19 N10          7.6120     4.0070     4.0320 n2         1 QQV      -0.615100
     20 O16          4.4390     0.2460     5.0040 o          1 QQV      -0.650100
     21 C3           3.4730    -2.7870     3.7650 c          1 QQV       0.607100
     22 O15          4.6300    -3.1100     3.6000 o          1 QQV      -0.651100
     23 N8           2.5860    -3.6790     4.2490 n          1 QQV      -0.147800
     24 C19          2.9990    -5.0520     4.5840 c3         1 QQV       0.000500
     25 C23          2.5110    -5.3720     6.0020 c3         1 QQV       0.198400
     26 O18          1.1130    -5.0890     6.0930 os         1 QQV      -0.404600
     27 C22          0.7790    -3.7160     5.8830 c3         1 QQV       0.198400
     28 C20          1.1780    -3.3100     4.4640 c3         1 QQV       0.000500
     29 HXT          8.3930     2.2320     3.3740 h4         1 QQV      -0.008200
     30 H4           1.5290     0.7220     2.3080 h1         1 QQV       0.079700
     31 H24          3.7510     0.9340    -1.3820 ha         1 QQV       0.123000
     32 H25          0.0320     2.5070     0.0060 ha         1 QQV       0.123000
     33 H27          4.3600     3.1540    -2.2670 ha         1 QQV       0.110000
     34 H28          2.8060     5.0510    -2.0120 ha         1 QQV       0.103000
     35 H26          0.6410     4.7270    -0.8760 ha         1 QQV       0.110000
     36 H71C         4.0040     0.0450     0.7470 hc         1 QQV       0.029200
     37 H72C         3.7410     1.3440     1.9340 hc         1 QQV       0.029200
     38 H61C         2.1740    -2.1750     1.5830 hc         1 QQV       0.040200
     39 H62C         0.9620    -1.5670     2.7470 hc         1 QQV       0.040200
     40 H5           4.9130    -1.2600     2.3760 hc         1 QQV       0.082700
     41 H2           2.6470    -0.8830     4.3110 hc         1 QQV       0.080700
     42 H17          6.2150     1.0890     2.5890 hn         1 QQV       0.178500
     43 H211         6.9010     1.2990     5.3290 h1         1 QQV       0.034700
     44 H212         5.7560     2.5990     4.9700 h1         1 QQV       0.034700
     45 H10          6.8820     4.4700     4.5360 hn         1 QQV       0.317400
     46 H191         4.0790    -5.1260     4.5470 h1         1 QQV       0.040450
     47 H192         2.5560    -5.7470     3.8820 h1         1 QQV       0.040450
     48 H201         0.5530    -3.8300     3.7480 h1         1 QQV       0.040450
     49 H202         1.0620    -2.2390     4.3470 h1         1 QQV       0.040450
     50 H231         3.0500    -4.7600     6.7150 h1         1 QQV       0.016700
     51 H232         2.6820    -6.4200     6.2140 h1         1 QQV       0.016700
     52 H221        -0.2890    -3.5810     6.0090 h1         1 QQV       0.016700
     53 H222         1.3130    -3.1010     6.5970 h1         1 QQV       0.016700
@<TRIPOS>BOND
     1     1     2 2   
     2     2     3 2   
     3     2     4 1   
     4     2    10 1   
     5     4     5 ar  
     6     4     9 ar  
     7     5     6 ar  
     8     5    31 1   
     9     6     7 ar  
    10     6    33 1   
    11     7     8 ar  
    12     7    34 1   
    13     8     9 ar  
    14     8    35 1   
    15     9    32 1   
    16    10    11 1   
    17    10    12 1   
    18    10    30 1   
    19    11    14 1   
    20    11    36 1   
    21    11    37 1   
    22    12    13 1   
    23    12    38 1   
    24    12    39 1   
    25    13    14 1   
    26    13    21 1   
    27    13    41 1   
    28    14    15 1   
    29    14    40 1   
    30    15    16 1   
    31    15    20 2   
    32    16    17 1   
    33    16    42 1   
    34    17    18 1   
    35    17    43 1   
    36    17    44 1   
    37    18    19 2   
    38    18    29 1   
    39    19    45 1   
    40    21    22 2   
    41    21    23 1   
    42    23    24 1   
    43    23    28 1   
    44    24    25 1   
    45    24    46 1   
    46    24    47 1   
    47    25    26 1   
    48    25    50 1   
    49    25    51 1   
    50    26    27 1   
    51    27    28 1   
    52    27    52 1   
    53    27    53 1   
    54    28    48 1   
    55    28    49 1   
@<TRIPOS>SUBSTRUCTURE
     1 QQV         1 TEMP              0 ****  ****    0 ROOT
