@<TRIPOS>MOLECULE
molecule
   34    37     1     0     0
SMALL
bcc


@<TRIPOS>ATOM
      1 OP3          0.0000     0.0000     0.0000 oh         1 QQX      -0.662400
      2 S1P          0.8060     2.4440    -1.2530 s          1 QQX      -0.579000
      3 O5'          7.1210    -0.4750    -0.5750 oh         1 QQX      -0.593800
      4 C5'          6.0700     0.4790    -0.7430 c3         1 QQX       0.143400
      5 C4'          4.8210     0.0000     0.0000 c3         1 QQX       0.148100
      6 O4'          5.0660     0.0000     1.4160 os         1 QQX      -0.389600
      7 C3'          3.6500     0.9690    -0.2650 c3         1 QQX       0.050100
      8 O3'          2.5450     0.1920    -0.7890 os         1 QQX      -0.453200
      9 C2'          3.2420     1.4560     1.1470 c3         1 QQX       0.052100
     10 O2'          1.8160     1.4870     1.2680 os         1 QQX      -0.421200
     11 C1'          3.8210     0.3500     2.0590 c3         1 QQX       0.254800
     12 N9           4.0650     0.8680     3.4070 na         1 QQX      -0.260000
     13 C8           5.2200     1.4340     3.8570 cc         1 QQX       0.443700
     14 N7           5.0890     1.7840     5.1030 nd         1 QQX      -0.567100
     15 C5           3.8440     1.4650     5.5320 ca         1 QQX      -0.154200
     16 C6           3.1520     1.6000     6.7480 ca         1 QQX       0.782200
     17 N6           3.7620     2.1760     7.8490 nv         1 QQX      -1.072500
     18 N1           1.8980     1.1640     6.8150 nb         1 QQX      -0.768000
     19 C2           1.3090     0.6140     5.7700 ca         1 QQX       0.710900
     20 C4           3.1710     0.8780     4.4480 ca         1 QQX       0.451800
     21 N3           1.9180     0.4660     4.6120 nb         1 QQX      -0.755000
     22 P            1.2570     0.9910    -0.1790 p5         1 QQX       1.131200
     23 HP3         -0.6740     0.2340    -0.6160 ho         1 QQX       0.497000
     24 H5'          7.9000    -0.1640    -1.0070 ho         1 QQX       0.415000
     25 H5'1         5.8450     0.5860    -1.7970 h1         1 QQX       0.039200
     26 H5'2         6.3840     1.4360    -0.3430 h1         1 QQX       0.039200
     27 H4'          4.5530    -0.9980    -0.3260 h1         1 QQX       0.103700
     28 H3'          3.9300     1.7860    -0.9190 h1         1 QQX       0.128700
     29 H1'          3.1560    -0.5050     2.0870 h2         1 QQX       0.100700
     30 H2'          3.6800     2.4210     1.3720 h1         1 QQX       0.132700
     31 H8           6.1160     1.5720     3.2640 h5         1 QQX       0.090800
     32 H61N         4.2570     1.6030     8.5030 hn         1 QQX       0.446800
     33 H62N         3.6850     3.1610     8.0050 hn         1 QQX       0.446800
     34 H2           0.2850     0.2720     5.8680 h5         1 QQX       0.066100
@<TRIPOS>BOND
     1     1    22 1
     2     2    22 2
     3     3     4 1
     4     4     5 1
     5     5     6 1
     6     5     7 1
     7     6    11 1
     8     7     8 1
     9     7     9 1
    10     8    22 1
    11     9    10 1
    12     9    11 1
    13    10    22 1
    14    11    12 1
    15    12    13 1
    16    12    20 1
    17    13    14 2
    18    14    15 1
    19    15    16 ar
    20    15    20 ar
    21    21    20 ar
    22    16    17 1
    23    16    18 ar
    24    18    19 ar
    25    19    21 ar
    26     1    23 1
    27     3    24 1
    28     4    25 1
    29     4    26 1
    30     5    27 1
    31     7    28 1
    32    11    29 1
    33     9    30 1
    34    13    31 1
    35    17    32 1
    36    17    33 1
    37    19    34 1
@<TRIPOS>SUBSTRUCTURE
     1 QQX         1 TEMP              0 ****  ****    0 ROOT
