@<TRIPOS>MOLECULE
QQX
   34    37     1     0     0
SMALL
bcc


@<TRIPOS>ATOM
      1 OP3          0.0000     0.0000     0.0000 oh         1 QQX      -0.592400
      2 S1P          0.8060     2.4440    -1.2530 s          1 QQX      -0.255000
      3 O5'          7.1210    -0.4750    -0.5750 oh         1 QQX      -0.580800
      4 C5'          6.0700     0.4790    -0.7430 c3         1 QQX       0.221400
      5 C4'          4.8210     0.0000     0.0000 c3         1 QQX       0.166100
      6 O4'          5.0660     0.0000     1.4160 os         1 QQX      -0.382600
      7 C3'          3.6500     0.9690    -0.2650 c3         1 QQX       0.119100
      8 O3'          2.5450     0.1920    -0.7890 os         1 QQX      -0.391200
      9 C2'          3.2420     1.4560     1.1470 c3         1 QQX       0.115100
     10 O2'          1.8160     1.4870     1.2680 os         1 QQX      -0.358200
     11 C1'          3.8210     0.3500     2.0590 c3         1 QQX       0.142800
     12 N9           4.0650     0.8680     3.4070 na         1 QQX       0.198000
     13 C8           5.2200     1.4340     3.8570 cc         1 QQX       0.270700
     14 N7           5.0890     1.7840     5.1030 nd         1 QQX      -0.485100
     15 C5           3.8440     1.4650     5.5320 ca         1 QQX      -0.182200
     16 C6           3.1520     1.6000     6.7480 ca         1 QQX       0.601200
     17 N6           3.7620     2.1760     7.8490 nv         1 QQX      -0.644500
     18 N1           1.8980     1.1640     6.8150 nb         1 QQX      -0.656000
     19 C2           1.3090     0.6140     5.7700 ca         1 QQX       0.641900
     20 C4           3.1710     0.8780     4.4480 ca         1 QQX       0.236800
     21 N3           1.9180     0.4660     4.6120 nb         1 QQX      -0.614000
     22 P            1.2570     0.9910    -0.1790 p5         1 QQX       0.692200
     23 HP3         -0.6740     0.2340    -0.6160 ho         1 QQX       0.472000
     24 H5'          7.9000    -0.1640    -1.0070 ho         1 QQX       0.397000
     25 H5'1         5.8450     0.5860    -1.7970 h1         1 QQX      -0.002800
     26 H5'2         6.3840     1.4360    -0.3430 h1         1 QQX      -0.002800
     27 H4'          4.5530    -0.9980    -0.3260 h1         1 QQX       0.059700
     28 H3'          3.9300     1.7860    -0.9190 h1         1 QQX       0.072700
     29 H1'          3.1560    -0.5050     2.0870 h2         1 QQX       0.060700
     30 H2'          3.6800     2.4210     1.3720 h1         1 QQX       0.071700
     31 H8           6.1160     1.5720     3.2640 h5         1 QQX       0.040800
     32 H61N         4.2570     1.6030     8.5030 hn         1 QQX       0.282800
     33 H62N         3.6850     3.1610     8.0050 hn         1 QQX       0.282800
     34 H2           0.2850     0.2720     5.8680 h5         1 QQX      -0.000900
@<TRIPOS>BOND
     1     1    22 1   
     2     1    23 1   
     3     2    22 2   
     4     3     4 1   
     5     3    24 1   
     6     4     5 1   
     7     4    25 1   
     8     4    26 1   
     9     5     6 1   
    10     5     7 1   
    11     5    27 1   
    12     6    11 1   
    13     7     8 1   
    14     7     9 1   
    15     7    28 1   
    16     8    22 1   
    17     9    10 1   
    18     9    11 1   
    19     9    30 1   
    20    10    22 1   
    21    11    12 1   
    22    11    29 1   
    23    12    13 1   
    24    12    20 1   
    25    13    14 2   
    26    13    31 1   
    27    14    15 1   
    28    15    16 ar  
    29    15    20 ar  
    30    16    17 1   
    31    16    18 ar  
    32    17    32 1   
    33    17    33 1   
    34    18    19 ar  
    35    19    21 ar  
    36    19    34 1   
    37    20    21 ar  
@<TRIPOS>SUBSTRUCTURE
     1 QQX         1 TEMP              0 ****  ****    0 ROOT
