@<TRIPOS>MOLECULE
QQY
   34    37     1     0     0
SMALL
bcc


@<TRIPOS>ATOM
      1 OP3          0.0000     0.0000     0.0000 o          1 QQY      -0.575300
      2 S1P          0.8630    -2.4980    -1.3870 sh         1 QQY      -0.208200
      3 O5'          6.7980     0.2500    -1.0070 oh         1 QQY      -0.582800
      4 C5'          5.5100     0.8580    -0.8970 c3         1 QQY       0.230400
      5 C4'          4.6170     0.0000     0.0000 c3         1 QQY       0.155100
      6 O4'          5.1090     0.0000     1.3580 os         1 QQY      -0.383600
      7 C3'          3.2090     0.6280     0.1280 c3         1 QQY       0.133100
      8 O3'          2.3760     0.1710    -0.9430 os         1 QQY      -0.389200
      9 C2'          2.7100     0.0540     1.4770 c3         1 QQY       0.110100
     10 O2'          1.9630    -1.1510     1.1830 os         1 QQY      -0.370200
     11 C1'          4.0060    -0.3620     2.2060 c3         1 QQY       0.154800
     12 N9           4.1070     0.3470     3.4840 na         1 QQY       0.190000
     13 C8           4.7750     1.5140     3.7090 cc         1 QQY       0.249700
     14 N7           4.6580     1.8600     4.9570 nd         1 QQY      -0.490100
     15 C5           3.9100     0.9400     5.6130 ca         1 QQY      -0.246200
     16 C6           3.4630     0.7900     6.9360 ca         1 QQY       0.593200
     17 N6           3.7880     1.7250     7.9030 nv         1 QQY      -0.478500
     18 N1           2.7210    -0.2700     7.2380 nb         1 QQY      -0.744000
     19 C2           2.4060    -1.1680     6.3210 ca         1 QQY       0.697900
     20 C4           3.5440    -0.0400     4.6730 ca         1 QQY       0.277800
     21 N3           2.8020    -1.0680     5.0700 nb         1 QQY      -0.680000
     22 P            1.2470    -0.7630    -0.2320 p5         1 QQY       0.890500
     23 H1P         -0.3200    -2.3830    -1.9790 hs         1 QQY       0.234800
     24 H5'          7.3320     0.7500    -1.6020 ho         1 QQY       0.396000
     25 H5'1         5.6130     1.8460    -0.4660 h1         1 QQY      -0.001300
     26 H5'2         5.0640     0.9380    -1.8810 h1         1 QQY      -0.001300
     27 H4'          4.5470    -1.0130    -0.3770 h1         1 QQY       0.044700
     28 H3'          3.2610     1.7090     0.1550 h1         1 QQY       0.058700
     29 H1'          4.0060    -1.4320     2.3720 h2         1 QQY       0.076700
     30 H2'          2.1310     0.7740     2.0430 h1         1 QQY       0.068700
     31 H8           5.3230     2.0710     2.9580 h5         1 QQY       0.038800
     32 H61N         3.4610     1.6080     8.8410 hn         1 QQY       0.276800
     33 H62N         4.3490     2.5180     7.6630 hn         1 QQY       0.276800
     34 H2           1.7990    -2.0170     6.6100 h5         1 QQY      -0.003900
@<TRIPOS>BOND
     1     1    22 2   
     2     2    22 1   
     3     2    23 1   
     4     3     4 1   
     5     3    24 1   
     6     4     5 1   
     7     4    25 1   
     8     4    26 1   
     9     5     6 1   
    10     5     7 1   
    11     5    27 1   
    12     6    11 1   
    13     7     8 1   
    14     7     9 1   
    15     7    28 1   
    16     8    22 1   
    17     9    10 1   
    18     9    11 1   
    19     9    30 1   
    20    10    22 1   
    21    11    12 1   
    22    11    29 1   
    23    12    13 1   
    24    12    20 1   
    25    13    14 2   
    26    13    31 1   
    27    14    15 1   
    28    15    16 ar  
    29    15    20 ar  
    30    16    17 1   
    31    16    18 ar  
    32    17    32 1   
    33    17    33 1   
    34    18    19 ar  
    35    19    21 ar  
    36    19    34 1   
    37    20    21 ar  
@<TRIPOS>SUBSTRUCTURE
     1 QQY         1 TEMP              0 ****  ****    0 ROOT
