@<TRIPOS>MOLECULE
molecule
   34    37     1     0     0
SMALL
bcc


@<TRIPOS>ATOM
      1 OP3          0.0000     0.0000     0.0000 o          1 QQY      -0.687300
      2 S1P          0.8630    -2.4980    -1.3870 sh         1 QQY      -0.490200
      3 O5'          6.7980     0.2500    -1.0070 oh         1 QQY      -0.595800
      4 C5'          5.5100     0.8580    -0.8970 c3         1 QQY       0.153400
      5 C4'          4.6170     0.0000     0.0000 c3         1 QQY       0.132100
      6 O4'          5.1090     0.0000     1.3580 os         1 QQY      -0.388600
      7 C3'          3.2090     0.6280     0.1280 c3         1 QQY       0.063100
      8 O3'          2.3760     0.1710    -0.9430 os         1 QQY      -0.448200
      9 C2'          2.7100     0.0540     1.4770 c3         1 QQY       0.042100
     10 O2'          1.9630    -1.1510     1.1830 os         1 QQY      -0.431200
     11 C1'          4.0060    -0.3620     2.2060 c3         1 QQY       0.269800
     12 N9           4.1070     0.3470     3.4840 na         1 QQY      -0.265000
     13 C8           4.7750     1.5140     3.7090 cc         1 QQY       0.424700
     14 N7           4.6580     1.8600     4.9570 nd         1 QQY      -0.578100
     15 C5           3.9100     0.9400     5.6130 ca         1 QQY      -0.212200
     16 C6           3.4630     0.7900     6.9360 ca         1 QQY       0.792200
     17 N6           3.7880     1.7250     7.9030 nv         1 QQY      -0.980500
     18 N1           2.7210    -0.2700     7.2380 nb         1 QQY      -0.833000
     19 C2           2.4060    -1.1680     6.3210 ca         1 QQY       0.750900
     20 C4           3.5440    -0.0400     4.6730 ca         1 QQY       0.479800
     21 N3           2.8020    -1.0680     5.0700 nb         1 QQY      -0.793000
     22 P            1.2470    -0.7630    -0.2320 p5         1 QQY       1.227500
     23 H1P         -0.3200    -2.3830    -1.9790 hs         1 QQY       0.364800
     24 H5'          7.3320     0.7500    -1.6020 ho         1 QQY       0.413000
     25 H5'1         5.6130     1.8460    -0.4660 h1         1 QQY       0.040700
     26 H5'2         5.0640     0.9380    -1.8810 h1         1 QQY       0.040700
     27 H4'          4.5470    -1.0130    -0.3770 h1         1 QQY       0.084700
     28 H3'          3.2610     1.7090     0.1550 h1         1 QQY       0.116700
     29 H1'          4.0060    -1.4320     2.3720 h2         1 QQY       0.124700
     30 H2'          2.1310     0.7740     2.0430 h1         1 QQY       0.127700
     31 H8           5.3230     2.0710     2.9580 h5         1 QQY       0.086800
     32 H61N         3.4610     1.6080     8.8410 hn         1 QQY       0.452300
     33 H62N         4.3490     2.5180     7.6630 hn         1 QQY       0.452300
     34 H2           1.7990    -2.0170     6.6100 h5         1 QQY       0.065100
@<TRIPOS>BOND
     1     1    22 2
     2     2    22 1
     3     3     4 1
     4     4     5 1
     5     5     6 1
     6     5     7 1
     7     6    11 1
     8     7     8 1
     9     7     9 1
    10     8    22 1
    11     9    10 1
    12     9    11 1
    13    10    22 1
    14    11    12 1
    15    12    13 1
    16    12    20 1
    17    13    14 2
    18    14    15 1
    19    15    16 ar
    20    15    20 ar
    21    21    20 ar
    22    16    17 1
    23    16    18 ar
    24    18    19 ar
    25    19    21 ar
    26     2    23 1
    27     3    24 1
    28     4    25 1
    29     4    26 1
    30     5    27 1
    31     7    28 1
    32    11    29 1
    33     9    30 1
    34    13    31 1
    35    17    32 1
    36    17    33 1
    37    19    34 1
@<TRIPOS>SUBSTRUCTURE
     1 QQY         1 TEMP              0 ****  ****    0 ROOT
