@<TRIPOS>MOLECULE
molecule
   23    22     1     0     0
SMALL
bcc


@<TRIPOS>ATOM
      1 CAA          0.0000     0.0000     0.0000 c3         1 QRL      -0.092100
      2 CAB          1.5300     0.0000     0.0000 c3         1 QRL      -0.082400
      3 CAC          2.0400     0.0000     1.4430 c3         1 QRL      -0.083400
      4 CAD          3.5700    -0.0000     1.4420 c3         1 QRL      -0.072400
      5 CAE          4.0800     0.0000     2.8850 c3         1 QRL      -0.164400
      6 CAF          5.5870    -0.0000     2.8840 c          1 QRL       0.569700
      7 OAG          6.1930    -0.0000     1.8340 o          1 QRL      -0.534100
      8 SAH          6.4430    -0.0000     4.3670 ss         1 QRL      -0.279700
      9 CAI          8.1430    -0.0000     3.7480 c3         1 QRL       0.000000
     10 HAA         -0.3610    -0.8850     0.5110 hc         1 QRL       0.033033
     11 HAAA        -0.3610    -0.0000    -1.0210 hc         1 QRL       0.033033
     12 HAAB        -0.3610     0.8850     0.5110 hc         1 QRL       0.033033
     13 HAB          1.8910    -0.8850    -0.5110 hc         1 QRL       0.042700
     14 HABA         1.8910     0.8850    -0.5110 hc         1 QRL       0.042700
     15 HAC          1.6790     0.8850     1.9530 hc         1 QRL       0.040700
     16 HACA         1.6790    -0.8850     1.9530 hc         1 QRL       0.040700
     17 HAD          3.9310    -0.8850     0.9320 hc         1 QRL       0.055700
     18 HADA         3.9310     0.8850     0.9320 hc         1 QRL       0.055700
     19 HAE          3.7190    -0.8850     3.3960 hc         1 QRL       0.072700
     20 HAEA         3.7190     0.8850     3.3960 hc         1 QRL       0.072700
     21 HAI          8.3080    -0.8850     3.1450 h1         1 QRL       0.072367
     22 HAIA         8.3080     0.8850     3.1450 h1         1 QRL       0.072367
     23 HAIB         8.8320    -0.0000     4.5840 h1         1 QRL       0.072367
@<TRIPOS>BOND
     1     1     2 1
     2     2     3 1
     3     3     4 1
     4     4     5 1
     5     5     6 1
     6     6     7 2
     7     6     8 1
     8     8     9 1
     9     1    10 1
    10     1    11 1
    11     1    12 1
    12     2    13 1
    13     2    14 1
    14     3    15 1
    15     3    16 1
    16     4    17 1
    17     4    18 1
    18     5    19 1
    19     5    20 1
    20     9    21 1
    21     9    22 1
    22     9    23 1
@<TRIPOS>SUBSTRUCTURE
     1 QRL         1 TEMP              0 ****  ****    0 ROOT
