@<TRIPOS>MOLECULE
molecule
   30    31     1     0     0
SMALL
bcc


@<TRIPOS>ATOM
      1 OAA          0.0000     0.0000     0.0000 o          1 QRO      -0.805800
      2 CAN          1.2140     0.0000     0.0000 c          1 QRO       0.879800
      3 OAD          1.8870     0.0000     1.1670 o          1 QRO      -0.805800
      4 CAR          1.9550    -0.0070    -1.2830 cc         1 QRO       0.045400
      5 NAL          3.3280     0.1170    -1.2940 ns         1 QRO      -0.428100
      6 CAT          4.0180     0.1130    -2.4470 c          1 QRO       0.799500
      7 OAB          5.2280     0.2240    -2.4130 o          1 QRO      -0.702500
      8 NAM          3.4050    -0.0120    -3.6370 ns         1 QRO      -0.566500
      9 CAU          2.0640    -0.1380    -3.7060 c          1 QRO       0.701700
     10 OAC          1.5060    -0.2510    -4.7820 o          1 QRO      -0.661500
     11 CAS          1.2880    -0.1420    -2.4590 cd         1 QRO      -0.285400
     12 CAK         -0.2120    -0.2810    -2.4840 c3         1 QRO      -0.004200
     13 CAJ         -0.8500     1.1040    -2.6170 c3         1 QRO      -0.026100
     14 CAO         -2.3510     0.9650    -2.6410 ca         1 QRO      -0.046300
     15 CAI         -3.0670     1.0020    -1.4590 ca         1 QRO      -0.125000
     16 CAQ         -4.4440     0.8750    -1.4810 ca         1 QRO       0.088900
     17 FAF         -5.1450     0.9120    -0.3280 f          1 QRO      -0.139900
     18 CAP         -5.1050     0.7110    -2.6900 ca         1 QRO       0.067900
     19 FAE         -6.4500     0.5870    -2.7140 f          1 QRO      -0.148900
     20 CAH         -4.3850     0.6750    -3.8710 ca         1 QRO      -0.156000
     21 CAG         -3.0100     0.8060    -3.8460 ca         1 QRO      -0.126000
     22 H2           3.9480    -0.0110    -4.4780 hn         1 QRO       0.342500
     23 H4          -0.5040    -0.8950    -3.3270 hc         1 QRO       0.076700
     24 H5          -0.5470    -0.7460    -1.5650 hc         1 QRO       0.076700
     25 H6          -0.5580     1.7180    -1.7740 hc         1 QRO       0.054700
     26 H7          -0.5150     1.5690    -3.5360 hc         1 QRO       0.054700
     27 H8          -2.5550     1.1850    -0.5220 ha         1 QRO       0.182000
     28 H9          -4.9000     0.5490    -4.8160 ha         1 QRO       0.136000
     29 H10         -2.4470     0.7780    -4.7710 ha         1 QRO       0.142000
     30 H11          3.8200     0.2120    -0.4280 hn         1 QRO       0.377500
@<TRIPOS>BOND
     1    21    14 ar
     2    21    20 ar
     3    13    14 1
     4    13    12 1
     5    14    15 ar
     6    20    18 ar
     7    15    16 ar
     8    18    16 ar
     9    18    19 1
    10    16    17 1
    11    12    11 1
    12    10     9 2
    13    11     9 1
    14    11     4 2
    15     9     8 1
    16     4     2 1
    17     4     5 1
    18     1     2 1
    19     8     6 1
    20     2     3 1
    21     6     5 1
    22     6     7 2
    23     8    22 1
    24    12    23 1
    25    12    24 1
    26    13    25 1
    27    13    26 1
    28    15    27 1
    29    20    28 1
    30    21    29 1
    31     5    30 1
@<TRIPOS>SUBSTRUCTURE
     1 QRO         1 TEMP              0 ****  ****    0 ROOT
