@<TRIPOS>MOLECULE
QRO
   30    31     1     0     0
SMALL
bcc


@<TRIPOS>ATOM
      1 OAA          0.0000     0.0000     0.0000 o          1 QRO      -0.853800
      2 CAN          1.2140     0.0000     0.0000 c          1 QRO       0.974800
      3 OAD          1.8870     0.0000     1.1670 o          1 QRO      -0.853800
      4 CAR          1.9550    -0.0070    -1.2830 cc         1 QRO      -0.128600
      5 NAL          3.3280     0.1170    -1.2940 ns         1 QRO       0.054900
      6 CAT          4.0180     0.1130    -2.4470 c          1 QRO       0.560500
      7 OAB          5.2280     0.2240    -2.4130 o          1 QRO      -0.756500
      8 NAM          3.4050    -0.0120    -3.6370 ns         1 QRO      -0.137500
      9 CAU          2.0640    -0.1380    -3.7060 c          1 QRO       0.618700
     10 OAC          1.5060    -0.2510    -4.7820 o          1 QRO      -0.701500
     11 CAS          1.2880    -0.1420    -2.4590 cd         1 QRO      -0.275400
     12 CAK         -0.2120    -0.2810    -2.4840 c3         1 QRO       0.023800
     13 CAJ         -0.8500     1.1040    -2.6170 c3         1 QRO       0.030900
     14 CAO         -2.3510     0.9650    -2.6410 ca         1 QRO      -0.042300
     15 CAI         -3.0670     1.0020    -1.4590 ca         1 QRO      -0.092000
     16 CAQ         -4.4440     0.8750    -1.4810 ca         1 QRO       0.068900
     17 FAF         -5.1450     0.9120    -0.3280 f          1 QRO      -0.125900
     18 CAP         -5.1050     0.7110    -2.6900 ca         1 QRO       0.045900
     19 FAE         -6.4500     0.5870    -2.7140 f          1 QRO      -0.131900
     20 CAH         -4.3850     0.6750    -3.8710 ca         1 QRO      -0.125000
     21 CAG         -3.0100     0.8060    -3.8460 ca         1 QRO      -0.097000
     22 H2           3.9480    -0.0110    -4.4780 hn         1 QRO       0.188500
     23 H4          -0.5040    -0.8950    -3.3270 hc         1 QRO       0.055200
     24 H5          -0.5470    -0.7460    -1.5650 hc         1 QRO       0.055200
     25 H6          -0.5580     1.7180    -1.7740 hc         1 QRO       0.025700
     26 H7          -0.5150     1.5690    -3.5360 hc         1 QRO       0.025700
     27 H8          -2.5550     1.1850    -0.5220 ha         1 QRO       0.155000
     28 H9          -4.9000     0.5490    -4.8160 ha         1 QRO       0.110000
     29 H10         -2.4470     0.7780    -4.7710 ha         1 QRO       0.116000
     30 H11          3.8200     0.2120    -0.4280 hn         1 QRO       0.212500
@<TRIPOS>BOND
     1     1     2 1   
     2     2     3 1   
     3     2     4 1   
     4     4     5 1   
     5     4    11 2   
     6     5     6 1   
     7     5    30 1   
     8     6     7 2   
     9     6     8 1   
    10     8     9 1   
    11     8    22 1   
    12     9    10 2   
    13     9    11 1   
    14    11    12 1   
    15    12    13 1   
    16    12    23 1   
    17    12    24 1   
    18    13    14 1   
    19    13    25 1   
    20    13    26 1   
    21    14    15 ar  
    22    14    21 ar  
    23    15    16 ar  
    24    15    27 1   
    25    16    17 1   
    26    16    18 ar  
    27    18    19 1   
    28    18    20 ar  
    29    20    21 ar  
    30    20    28 1   
    31    21    29 1   
@<TRIPOS>SUBSTRUCTURE
     1 QRO         1 TEMP              0 ****  ****    0 ROOT
