@<TRIPOS>MOLECULE
molecule
   38    41     1     0     0
SMALL
bcc


@<TRIPOS>ATOM
      1 C            0.0000     0.0000     0.0000 c          1 QRP       0.708500
      2 N            2.0080     0.0000     1.3760 ns         1 QRP      -0.579900
      3 O           -0.6270    -0.5480    -0.8830 o          1 QRP      -0.633500
      4 CA           1.5130     0.0000     0.0000 c3         1 QRP       0.045700
      5 CB           2.0230    -1.2480    -0.7240 c3         1 QRP      -0.002200
      6 CG           3.5240    -1.1870    -0.8340 cc         1 QRP      -0.174400
      7 OAA          1.8250     0.6500     3.4880 o          1 QRP      -0.637500
      8 CAH         -2.1100     0.5690     2.8460 c3         1 QRP      -0.110400
      9 CAI         -0.8440     1.3280     3.3110 c3         1 QRP      -0.079400
     10 CAJ         -2.0610     0.7180     1.3030 c3         1 QRP       0.103000
     11 CAN          1.3660     0.6490     2.3660 c          1 QRP       0.690500
     12 CAT          0.0750     1.3740     2.0770 c3         1 QRP       0.018700
     13 NAU         -0.6240     0.6300     1.0090 n          1 QRP      -0.492800
     14 CD1          4.2310    -0.7270    -1.8770 cd         1 QRP      -0.085100
     15 CD2          4.4890    -1.6150     0.1830 ca         1 QRP      -0.106800
     16 NE1          5.5710    -0.8300    -1.6160 na         1 QRP      -0.181400
     17 CE2          5.7620    -1.3690    -0.3630 ca         1 QRP      -0.036200
     18 CE3          4.3730    -2.1630     1.4620 ca         1 QRP      -0.096000
     19 CH2          6.7580    -2.2190     1.6420 ca         1 QRP      -0.107000
     20 CZ2          6.8950    -1.6790     0.3830 ca         1 QRP      -0.139000
     21 CZ3          5.5000    -2.4600     2.1770 ca         1 QRP      -0.144000
     22 HN           2.8500    -0.4970     1.5880 hn         1 QRP       0.347500
     23 HA           1.8700     0.8870    -0.5080 h1         1 QRP       0.071700
     24 HB           1.5900    -1.2920    -1.7160 hc         1 QRP       0.073200
     25 HBA          1.7370    -2.1310    -0.1660 hc         1 QRP       0.073200
     26 HAH         -2.0550    -0.4750     3.1310 hc         1 QRP       0.058200
     27 HAHA        -3.0030     1.0360     3.2460 hc         1 QRP       0.058200
     28 HAI         -0.3530     0.6970     4.0430 hc         1 QRP       0.079200
     29 HAIA        -1.1480     2.3480     3.5130 hc         1 QRP       0.079200
     30 HAJ         -2.4550     1.6810     0.9990 h1         1 QRP       0.060700
     31 HAJA        -2.5990    -0.0910     0.8240 h1         1 QRP       0.060700
     32 HAT          0.2650     2.3960     1.7750 h1         1 QRP       0.078700
     33 HD1          3.8050    -0.3330    -2.7910 h4         1 QRP       0.168000
     34 HE3          3.3940    -2.3540     1.8850 ha         1 QRP       0.134000
     35 HH2          7.6410    -2.4600     2.2220 ha         1 QRP       0.133000
     36 HZ2          7.8820    -1.4950    -0.0240 ha         1 QRP       0.127000
     37 HZ3          5.4100    -2.8860     3.1690 ha         1 QRP       0.134000
     38 HNE1         6.3020    -0.5520    -2.2400 hn         1 QRP       0.298700
@<TRIPOS>BOND
     1     3     1 2
     2     1     4 1
     3     1    13 1
     4     4     2 1
     5     2    11 1
     6     2    22 1
     7     5     4 1
     8     4    23 1
     9     5     6 1
    10     5    24 1
    11     5    25 1
    12    15     6 1
    13     6    14 2
    14    11     7 2
    15    10     8 1
    16     8     9 1
    17     8    26 1
    18     8    27 1
    19    12     9 1
    20     9    28 1
    21     9    29 1
    22    13    10 1
    23    10    30 1
    24    10    31 1
    25    12    11 1
    26    13    12 1
    27    12    32 1
    28    16    14 1
    29    14    33 1
    30    18    15 ar
    31    15    17 ar
    32    17    16 1
    33    20    17 ar
    34    21    18 ar
    35    18    34 1
    36    21    19 ar
    37    19    20 ar
    38    19    35 1
    39    20    36 1
    40    21    37 1
    41    16    38 1
@<TRIPOS>SUBSTRUCTURE
     1 QRP         1 TEMP              0 ****  ****    0 ROOT
