@<TRIPOS>MOLECULE
QRW
   55    58     1     0     0
SMALL
bcc


@<TRIPOS>ATOM
      1 C1           0.0000     0.0000     0.0000 ca         1 QRW      -0.074500
      2 C2           1.3990     0.0000     0.0000 ca         1 QRW      -0.221300
      3 C3           2.0680     0.0000     1.2060 ca         1 QRW       0.411700
      4 N4           1.4060    -0.0010     2.3480 nb         1 QRW      -0.578000
      5 C5           0.0870    -0.0010     2.3930 ca         1 QRW       0.411700
      6 C6          -0.6600    -0.0010     1.2340 ca         1 QRW      -0.221300
      7 C7          -0.7610     0.0060    -1.2690 cc         1 QRW       0.234000
      8 N8          -0.2920     0.3080    -2.4600 nd         1 QRW      -0.311000
      9 N9          -1.2330     0.2060    -3.3300 nd         1 QRW      -0.303000
     10 C10         -2.3430    -0.1620    -2.7490 cc         1 QRW       0.143800
     11 N11         -2.0840    -0.3080    -1.4270 na         1 QRW       0.166300
     12 C12         -3.0250    -0.7150    -0.3830 c3         1 QRW      -0.025400
     13 C13         -3.6710    -0.3900    -3.4250 c3         1 QRW       0.176500
     14 N14         -3.7680    -1.7890    -3.8500 nu         1 QRW      -0.437600
     15 C15         -4.9170    -2.2410    -4.5050 ca         1 QRW       0.053600
     16 C16         -5.9660    -1.3650    -4.7530 ca         1 QRW      -0.176000
     17 C17         -7.1050    -1.8080    -5.4000 ca         1 QRW      -0.056000
     18 C18         -7.2060    -3.1230    -5.8040 ca         1 QRW      -0.144000
     19 C19         -6.1580    -4.0120    -5.5590 ca         1 QRW      -0.103600
     20 C20         -5.0070    -3.5640    -4.9110 ca         1 QRW      -0.112000
     21 C21         -6.2660    -5.4220    -5.9900 c          1 QRW       0.598700
     22 O22         -5.3520    -6.1950    -5.7760 o          1 QRW      -0.650100
     23 N23         -7.3770    -5.8520    -6.6200 ns         1 QRW      -0.200900
     24 C24         -7.4830    -7.2500    -7.0470 c3         1 QRW       0.083300
     25 C25         -8.8120    -7.4690    -7.7220 ca         1 QRW      -0.058300
     26 C26         -8.9900    -7.0890    -9.0390 ca         1 QRW      -0.199300
     27 C27        -10.2100    -7.2900    -9.6570 ca         1 QRW      -0.046000
     28 C28        -11.2520    -7.8710    -8.9590 ca         1 QRW      -0.101000
     29 C29        -11.0730    -8.2530    -7.6420 ca         1 QRW      -0.067000
     30 C30         -9.8530    -8.0550    -7.0240 ca         1 QRW      -0.092000
     31 C31         -7.8550    -6.4560    -9.8000 c3         1 QRW       0.645200
     32 F32         -8.2740    -6.1610   -11.1020 f          1 QRW      -0.205967
     33 F33         -7.4640    -5.2750    -9.1580 f          1 QRW      -0.205967
     34 F34         -6.7730    -7.3410    -9.8460 f          1 QRW      -0.205967
     35 H2           1.9490     0.0010    -0.9330 ha         1 QRW       0.128500
     36 H3           3.1510    -0.0000     1.2170 h4         1 QRW      -0.017900
     37 H5          -0.4150    -0.0010     3.3530 h4         1 QRW      -0.017900
     38 H6          -1.7430    -0.0010     1.2780 ha         1 QRW       0.128500
     39 H12         -2.5720    -1.4840     0.2320 h1         1 QRW       0.036367
     40 H12A        -3.9270    -1.1040    -0.8400 h1         1 QRW       0.036367
     41 H12B        -3.2730     0.1400     0.2340 h1         1 QRW       0.036367
     42 H13         -3.7510     0.2570    -4.2900 h1         1 QRW       0.024700
     43 H13A        -4.4720    -0.1670    -2.7310 h1         1 QRW       0.024700
     44 HN14        -2.9960    -2.4090    -3.7090 hn         1 QRW       0.303800
     45 H16         -5.8910    -0.3310    -4.4380 ha         1 QRW       0.112000
     46 H17         -7.9200    -1.1200    -5.5910 ha         1 QRW       0.101000
     47 H18         -8.1010    -3.4670    -6.3090 ha         1 QRW       0.104000
     48 H20         -4.1910    -4.2490    -4.7180 ha         1 QRW       0.133000
     49 HN23        -8.1470    -5.2280    -6.7570 hn         1 QRW       0.189500
     50 H24         -7.4060    -7.8980    -6.1820 h1         1 QRW       0.043200
     51 H24A        -6.6830    -7.4780    -7.7410 h1         1 QRW       0.043200
     52 H27        -10.3500    -6.9920   -10.6890 ha         1 QRW       0.123000
     53 H28        -12.2080    -8.0270    -9.4440 ha         1 QRW       0.112000
     54 H29        -11.8890    -8.7100    -7.0950 ha         1 QRW       0.108000
     55 H30         -9.7140    -8.3540    -5.9920 ha         1 QRW       0.117000
@<TRIPOS>BOND
     1     1     2 ar  
     2     1     6 ar  
     3     1     7 1   
     4     2     3 ar  
     5     2    35 1   
     6     3     4 ar  
     7     3    36 1   
     8     4     5 ar  
     9     5     6 ar  
    10     5    37 1   
    11     6    38 1   
    12     7     8 2   
    13     7    11 1   
    14     8     9 1   
    15     9    10 2   
    16    10    11 1   
    17    10    13 1   
    18    11    12 1   
    19    12    39 1   
    20    12    40 1   
    21    12    41 1   
    22    13    14 1   
    23    13    42 1   
    24    13    43 1   
    25    14    15 1   
    26    14    44 1   
    27    15    16 ar  
    28    15    20 ar  
    29    16    17 ar  
    30    16    45 1   
    31    17    18 ar  
    32    17    46 1   
    33    18    19 ar  
    34    18    47 1   
    35    19    20 ar  
    36    19    21 1   
    37    20    48 1   
    38    21    22 2   
    39    21    23 1   
    40    23    24 1   
    41    23    49 1   
    42    24    25 1   
    43    24    50 1   
    44    24    51 1   
    45    25    26 ar  
    46    25    30 ar  
    47    26    27 ar  
    48    26    31 1   
    49    27    28 ar  
    50    27    52 1   
    51    28    29 ar  
    52    28    53 1   
    53    29    30 ar  
    54    29    54 1   
    55    30    55 1   
    56    31    32 1   
    57    31    33 1   
    58    31    34 1   
@<TRIPOS>SUBSTRUCTURE
     1 QRW         1 TEMP              0 ****  ****    0 ROOT
