@<TRIPOS>MOLECULE
molecule
   55    58     1     0     0
SMALL
bcc


@<TRIPOS>ATOM
      1 C1           0.0000     0.0000     0.0000 ca         1 QRW      -0.077500
      2 C2           1.3990     0.0000     0.0000 ca         1 QRW      -0.238300
      3 C3           2.0680     0.0000     1.2060 ca         1 QRW       0.422700
      4 N4           1.4060    -0.0010     2.3480 nb         1 QRW      -0.684000
      5 C5           0.0870    -0.0010     2.3930 ca         1 QRW       0.422700
      6 C6          -0.6600    -0.0010     1.2340 ca         1 QRW      -0.238300
      7 C7          -0.7610     0.0060    -1.2690 cc         1 QRW       0.412000
      8 N8          -0.2920     0.3080    -2.4600 nd         1 QRW      -0.334000
      9 N9          -1.2330     0.2060    -3.3300 nd         1 QRW      -0.334000
     10 C10         -2.3430    -0.1620    -2.7490 cc         1 QRW       0.337800
     11 N11         -2.0840    -0.3080    -1.4270 na         1 QRW      -0.310700
     12 C12         -3.0250    -0.7150    -0.3830 c3         1 QRW       0.024600
     13 C13         -3.6710    -0.3900    -3.4250 c3         1 QRW       0.231500
     14 N14         -3.7680    -1.7890    -3.8500 nu         1 QRW      -0.831600
     15 C15         -4.9170    -2.2410    -4.5050 ca         1 QRW       0.191600
     16 C16         -5.9660    -1.3650    -4.7530 ca         1 QRW      -0.192000
     17 C17         -7.1050    -1.8080    -5.4000 ca         1 QRW      -0.090000
     18 C18         -7.2060    -3.1230    -5.8040 ca         1 QRW      -0.159000
     19 C19         -6.1580    -4.0120    -5.5590 ca         1 QRW      -0.097600
     20 C20         -5.0070    -3.5640    -4.9110 ca         1 QRW      -0.140000
     21 C21         -6.2660    -5.4220    -5.9900 c          1 QRW       0.675700
     22 O22         -5.3520    -6.1950    -5.7760 o          1 QRW      -0.609100
     23 N23         -7.3770    -5.8520    -6.6200 ns         1 QRW      -0.578900
     24 C24         -7.4830    -7.2500    -7.0470 c3         1 QRW       0.144300
     25 C25         -8.8120    -7.4690    -7.7220 ca         1 QRW      -0.067300
     26 C26         -8.9900    -7.0890    -9.0390 ca         1 QRW      -0.170300
     27 C27        -10.2100    -7.2900    -9.6570 ca         1 QRW      -0.085000
     28 C28        -11.2520    -7.8710    -8.9590 ca         1 QRW      -0.127000
     29 C29        -11.0730    -8.2530    -7.6420 ca         1 QRW      -0.103000
     30 C30         -9.8530    -8.0550    -7.0240 ca         1 QRW      -0.118000
     31 C31         -7.8550    -6.4560    -9.8000 c3         1 QRW       0.674200
     32 F32         -8.2740    -6.1610   -11.1020 f          1 QRW      -0.219967
     33 F33         -7.4640    -5.2750    -9.1580 f          1 QRW      -0.219967
     34 F34         -6.7730    -7.3410    -9.8460 f          1 QRW      -0.219967
     35 H2           1.9490     0.0010    -0.9330 ha         1 QRW       0.151000
     36 H3           3.1510    -0.0000     1.2170 h4         1 QRW       0.028600
     37 H5          -0.4150    -0.0010     3.3530 h4         1 QRW       0.028600
     38 H6          -1.7430    -0.0010     1.2780 ha         1 QRW       0.151000
     39 H12         -2.5720    -1.4840     0.2320 h1         1 QRW       0.064033
     40 H12A        -3.9270    -1.1040    -0.8400 h1         1 QRW       0.064033
     41 H12B        -3.2730     0.1400     0.2340 h1         1 QRW       0.064033
     42 H13         -3.7510     0.2570    -4.2900 h1         1 QRW       0.059700
     43 H13A        -4.4720    -0.1670    -2.7310 h1         1 QRW       0.059700
     44 HN14        -2.9960    -2.4090    -3.7090 hn         1 QRW       0.451800
     45 H16         -5.8910    -0.3310    -4.4380 ha         1 QRW       0.130000
     46 H17         -7.9200    -1.1200    -5.5910 ha         1 QRW       0.132000
     47 H18         -8.1010    -3.4670    -6.3090 ha         1 QRW       0.125000
     48 H20         -4.1910    -4.2490    -4.7180 ha         1 QRW       0.158000
     49 HN23        -8.1470    -5.2280    -6.7570 hn         1 QRW       0.322500
     50 H24         -7.4060    -7.8980    -6.1820 h1         1 QRW       0.071200
     51 H24A        -6.6830    -7.4780    -7.7410 h1         1 QRW       0.071200
     52 H27        -10.3500    -6.9920   -10.6890 ha         1 QRW       0.153000
     53 H28        -12.2080    -8.0270    -9.4440 ha         1 QRW       0.141000
     54 H29        -11.8890    -8.7100    -7.0950 ha         1 QRW       0.139000
     55 H30         -9.7140    -8.3540    -5.9920 ha         1 QRW       0.145000
@<TRIPOS>BOND
     1     1     2 ar
     2     1     6 ar
     3     1     7 1
     4     2     3 ar
     5     3     4 ar
     6     4     5 ar
     7     5     6 ar
     8     7     8 2
     9     7    11 1
    10     8     9 1
    11     9    10 2
    12    10    11 1
    13    10    13 1
    14    11    12 1
    15    13    14 1
    16    14    15 1
    17    15    16 ar
    18    15    20 ar
    19    16    17 ar
    20    17    18 ar
    21    18    19 ar
    22    19    20 ar
    23    19    21 1
    24    21    22 2
    25    21    23 1
    26    23    24 1
    27    24    25 1
    28    25    26 ar
    29    25    30 ar
    30    26    27 ar
    31    26    31 1
    32    27    28 ar
    33    28    29 ar
    34    29    30 ar
    35    31    32 1
    36    31    33 1
    37    31    34 1
    38     2    35 1
    39     3    36 1
    40     5    37 1
    41     6    38 1
    42    12    39 1
    43    12    40 1
    44    12    41 1
    45    13    42 1
    46    13    43 1
    47    14    44 1
    48    16    45 1
    49    17    46 1
    50    18    47 1
    51    20    48 1
    52    23    49 1
    53    24    50 1
    54    24    51 1
    55    27    52 1
    56    28    53 1
    57    29    54 1
    58    30    55 1
@<TRIPOS>SUBSTRUCTURE
     1 QRW         1 TEMP              0 ****  ****    0 ROOT
