@<TRIPOS>MOLECULE
QRX
   57    60     1     0     0
SMALL
bcc


@<TRIPOS>ATOM
      1 C1           0.0000     0.0000     0.0000 ca         1 QRX       0.402300
      2 C2           1.3990     0.0000     0.0000 ca         1 QRX      -0.301600
      3 C3           2.0540     0.0000     1.2180 ca         1 QRX       0.446200
      4 N4           1.3430     0.0020     2.3350 nb         1 QRX      -0.626000
      5 C5           0.0250     0.0020     2.3020 ca         1 QRX       0.635900
      6 N6          -0.6420     0.0010     1.1680 nb         1 QRX      -0.655000
      7 C7          -0.7520     0.0050    -1.2730 cc         1 QRX       0.110500
      8 N8          -0.2400     0.0100    -2.4840 nd         1 QRX      -0.310000
      9 N9          -1.1890     0.0120    -3.3520 nd         1 QRX      -0.310000
     10 C10         -2.3480     0.0110    -2.7470 cc         1 QRX       0.145800
     11 N11         -2.1140     0.0010    -1.4140 na         1 QRX       0.202300
     12 C12         -3.1120    -0.0100    -0.3430 c3         1 QRX      -0.069700
     13 C13         -3.4660     1.4280     0.0390 c3         1 QRX      -0.039400
     14 C14         -4.5100     1.4170     1.1570 c3         1 QRX       0.011900
     15 C15         -3.7010     0.0120    -3.4130 c3         1 QRX       0.173500
     16 N16         -4.1380    -1.3670    -3.6340 nu         1 QRX      -0.434600
     17 C17         -5.3710    -1.6210    -4.2410 ca         1 QRX       0.055600
     18 C18         -5.7860    -2.9270    -4.4490 ca         1 QRX      -0.113000
     19 C19         -7.0170    -3.1740    -5.0570 ca         1 QRX      -0.103600
     20 C20         -7.8230    -2.1050    -5.4500 ca         1 QRX      -0.147000
     21 C21         -7.4010    -0.8080    -5.2390 ca         1 QRX      -0.055000
     22 C22         -6.1830    -0.5630    -4.6320 ca         1 QRX      -0.177000
     23 C23         -7.4660    -4.5640    -5.2840 c          1 QRX       0.597700
     24 N24         -8.6560    -4.8010    -5.8710 ns         1 QRX      -0.197900
     25 O25         -6.7630    -5.4940    -4.9400 o          1 QRX      -0.650100
     26 C26         -9.1010    -6.1790    -6.0950 c3         1 QRX       0.117300
     27 C27        -10.4540    -6.1670    -6.7610 ca         1 QRX      -0.189300
     28 C28        -10.5450    -6.1580    -8.1420 ca         1 QRX       0.149400
     29 C29        -11.7880    -6.1480    -8.7530 ca         1 QRX      -0.147000
     30 C30        -12.9360    -6.1460    -7.9840 ca         1 QRX      -0.041000
     31 C31        -12.8460    -6.1540    -6.6050 ca         1 QRX      -0.147000
     32 C32        -11.6040    -6.1710    -5.9920 ca         1 QRX       0.149400
     33 F33        -11.5160    -6.1860    -4.6430 f          1 QRX      -0.118900
     34 F34         -9.4230    -6.1590    -8.8940 f          1 QRX      -0.118900
     35 H2           1.9550    -0.0010    -0.9300 ha         1 QRX       0.148000
     36 H3           3.1370    -0.0000     1.2580 h4         1 QRX      -0.009900
     37 H5          -0.5240     0.0030     3.2350 h5         1 QRX       0.001100
     38 H12         -4.0030    -0.5220    -0.6850 h1         1 QRX       0.059700
     39 H12A        -2.7090    -0.5240     0.5210 h1         1 QRX       0.059700
     40 H13         -3.8690     1.9430    -0.8250 hc         1 QRX       0.024200
     41 H13A        -2.5760     1.9410     0.3820 hc         1 QRX       0.024200
     42 H14         -5.4660     1.1030     0.7560 hc         1 QRX       0.006700
     43 H14A        -4.6030     2.4130     1.5740 hc         1 QRX       0.006700
     44 H14B        -4.2000     0.7280     1.9340 hc         1 QRX       0.006700
     45 H15         -4.4160     0.5210    -2.7770 h1         1 QRX       0.025700
     46 H15A        -3.6340     0.5260    -4.3640 h1         1 QRX       0.025700
     47 HN16        -3.5450    -2.1290    -3.3680 hn         1 QRX       0.302800
     48 H18         -5.1560    -3.7540    -4.1420 ha         1 QRX       0.134000
     49 H20         -8.7780    -2.2930    -5.9250 ha         1 QRX       0.102000
     50 H21         -8.0290     0.0210    -5.5440 ha         1 QRX       0.100000
     51 H22         -5.8570     0.4570    -4.4690 ha         1 QRX       0.112000
     52 HN24        -9.2380    -4.0360    -6.1500 hn         1 QRX       0.183500
     53 H26         -8.3890    -6.6900    -6.7320 h1         1 QRX       0.041200
     54 H26A        -9.1710    -6.6950    -5.1450 h1         1 QRX       0.041200
     55 H29        -11.8600    -6.1410    -9.8330 ha         1 QRX       0.125500
     56 H30        -13.9080    -6.1360    -8.4630 ha         1 QRX       0.112000
     57 H31        -13.7470    -6.1550    -6.0030 ha         1 QRX       0.125500
@<TRIPOS>BOND
     1     1     2 ar  
     2     1     6 ar  
     3     1     7 1   
     4     2     3 ar  
     5     2    35 1   
     6     3     4 ar  
     7     3    36 1   
     8     4     5 ar  
     9     5     6 ar  
    10     5    37 1   
    11     7     8 2   
    12     7    11 1   
    13     8     9 1   
    14     9    10 2   
    15    10    11 1   
    16    10    15 1   
    17    11    12 1   
    18    12    13 1   
    19    12    38 1   
    20    12    39 1   
    21    13    14 1   
    22    13    40 1   
    23    13    41 1   
    24    14    42 1   
    25    14    43 1   
    26    14    44 1   
    27    15    16 1   
    28    15    45 1   
    29    15    46 1   
    30    16    17 1   
    31    16    47 1   
    32    17    18 ar  
    33    17    22 ar  
    34    18    19 ar  
    35    18    48 1   
    36    19    20 ar  
    37    19    23 1   
    38    20    21 ar  
    39    20    49 1   
    40    21    22 ar  
    41    21    50 1   
    42    22    51 1   
    43    23    24 1   
    44    23    25 2   
    45    24    26 1   
    46    24    52 1   
    47    26    27 1   
    48    26    53 1   
    49    26    54 1   
    50    27    28 ar  
    51    27    32 ar  
    52    28    29 ar  
    53    28    34 1   
    54    29    30 ar  
    55    29    55 1   
    56    30    31 ar  
    57    30    56 1   
    58    31    32 ar  
    59    31    57 1   
    60    32    33 1   
@<TRIPOS>SUBSTRUCTURE
     1 QRX         1 TEMP              0 ****  ****    0 ROOT
