@<TRIPOS>MOLECULE
molecule
   57    60     1     0     0
SMALL
bcc


@<TRIPOS>ATOM
      1 C1           0.0000     0.0000     0.0000 ca         1 QRX       0.442300
      2 C2           1.3990     0.0000     0.0000 ca         1 QRX      -0.334600
      3 C3           2.0540     0.0000     1.2180 ca         1 QRX       0.458200
      4 N4           1.3430     0.0020     2.3350 nb         1 QRX      -0.732000
      5 C5           0.0250     0.0020     2.3020 ca         1 QRX       0.684900
      6 N6          -0.6420     0.0010     1.1680 nb         1 QRX      -0.758000
      7 C7          -0.7520     0.0050    -1.2730 cc         1 QRX       0.301500
      8 N8          -0.2400     0.0100    -2.4840 nd         1 QRX      -0.334000
      9 N9          -1.1890     0.0120    -3.3520 nd         1 QRX      -0.339000
     10 C10         -2.3480     0.0110    -2.7470 cc         1 QRX       0.340800
     11 N11         -2.1140     0.0010    -1.4140 na         1 QRX      -0.287700
     12 C12         -3.1120    -0.0100    -0.3430 c3         1 QRX       0.033300
     13 C13         -3.4660     1.4280     0.0390 c3         1 QRX      -0.098400
     14 C14         -4.5100     1.4170     1.1570 c3         1 QRX      -0.090100
     15 C15         -3.7010     0.0120    -3.4130 c3         1 QRX       0.230500
     16 N16         -4.1380    -1.3670    -3.6340 nu         1 QRX      -0.829600
     17 C17         -5.3710    -1.6210    -4.2410 ca         1 QRX       0.193600
     18 C18         -5.7860    -2.9270    -4.4490 ca         1 QRX      -0.141000
     19 C19         -7.0170    -3.1740    -5.0570 ca         1 QRX      -0.098600
     20 C20         -7.8230    -2.1050    -5.4500 ca         1 QRX      -0.162000
     21 C21         -7.4010    -0.8080    -5.2390 ca         1 QRX      -0.090000
     22 C22         -6.1830    -0.5630    -4.6320 ca         1 QRX      -0.192000
     23 C23         -7.4660    -4.5640    -5.2840 c          1 QRX       0.675700
     24 N24         -8.6560    -4.8010    -5.8710 ns         1 QRX      -0.579900
     25 O25         -6.7630    -5.4940    -4.9400 o          1 QRX      -0.608100
     26 C26         -9.1010    -6.1790    -6.0950 c3         1 QRX       0.167300
     27 C27        -10.4540    -6.1670    -6.7610 ca         1 QRX      -0.199300
     28 C28        -10.5450    -6.1580    -8.1420 ca         1 QRX       0.174400
     29 C29        -11.7880    -6.1480    -8.7530 ca         1 QRX      -0.186500
     30 C30        -12.9360    -6.1460    -7.9840 ca         1 QRX      -0.071000
     31 C31        -12.8460    -6.1540    -6.6050 ca         1 QRX      -0.186500
     32 C32        -11.6040    -6.1710    -5.9920 ca         1 QRX       0.174400
     33 F33        -11.5160    -6.1860    -4.6430 f          1 QRX      -0.126400
     34 F34         -9.4230    -6.1590    -8.8940 f          1 QRX      -0.126400
     35 H2           1.9550    -0.0010    -0.9300 ha         1 QRX       0.174000
     36 H3           3.1370    -0.0000     1.2580 h4         1 QRX       0.038100
     37 H5          -0.5240     0.0030     3.2350 h5         1 QRX       0.062100
     38 H12         -4.0030    -0.5220    -0.6850 h1         1 QRX       0.083200
     39 H12A        -2.7090    -0.5240     0.5210 h1         1 QRX       0.083200
     40 H13         -3.8690     1.9430    -0.8250 hc         1 QRX       0.053200
     41 H13A        -2.5760     1.9410     0.3820 hc         1 QRX       0.053200
     42 H14         -5.4660     1.1030     0.7560 hc         1 QRX       0.039700
     43 H14A        -4.6030     2.4130     1.5740 hc         1 QRX       0.039700
     44 H14B        -4.2000     0.7280     1.9340 hc         1 QRX       0.039700
     45 H15         -4.4160     0.5210    -2.7770 h1         1 QRX       0.060200
     46 H15A        -3.6340     0.5260    -4.3640 h1         1 QRX       0.060200
     47 HN16        -3.5450    -2.1290    -3.3680 hn         1 QRX       0.451800
     48 H18         -5.1560    -3.7540    -4.1420 ha         1 QRX       0.158000
     49 H20         -8.7780    -2.2930    -5.9250 ha         1 QRX       0.124000
     50 H21         -8.0290     0.0210    -5.5440 ha         1 QRX       0.132000
     51 H22         -5.8570     0.4570    -4.4690 ha         1 QRX       0.131000
     52 HN24        -9.2380    -4.0360    -6.1500 hn         1 QRX       0.319500
     53 H26         -8.3890    -6.6900    -6.7320 h1         1 QRX       0.071200
     54 H26A        -9.1710    -6.6950    -5.1450 h1         1 QRX       0.071200
     55 H29        -11.8600    -6.1410    -9.8330 ha         1 QRX       0.152500
     56 H30        -13.9080    -6.1360    -8.4630 ha         1 QRX       0.146000
     57 H31        -13.7470    -6.1550    -6.0030 ha         1 QRX       0.152500
@<TRIPOS>BOND
     1     1     2 ar
     2     1     6 ar
     3     1     7 1
     4     2     3 ar
     5     3     4 ar
     6     4     5 ar
     7     5     6 ar
     8     7     8 2
     9     7    11 1
    10     8     9 1
    11     9    10 2
    12    10    11 1
    13    10    15 1
    14    11    12 1
    15    12    13 1
    16    13    14 1
    17    15    16 1
    18    16    17 1
    19    17    18 ar
    20    17    22 ar
    21    18    19 ar
    22    19    20 ar
    23    19    23 1
    24    20    21 ar
    25    21    22 ar
    26    23    24 1
    27    23    25 2
    28    24    26 1
    29    26    27 1
    30    27    28 ar
    31    27    32 ar
    32    28    29 ar
    33    28    34 1
    34    29    30 ar
    35    30    31 ar
    36    31    32 ar
    37    32    33 1
    38     2    35 1
    39     3    36 1
    40     5    37 1
    41    12    38 1
    42    12    39 1
    43    13    40 1
    44    13    41 1
    45    14    42 1
    46    14    43 1
    47    14    44 1
    48    15    45 1
    49    15    46 1
    50    16    47 1
    51    18    48 1
    52    20    49 1
    53    21    50 1
    54    22    51 1
    55    24    52 1
    56    26    53 1
    57    26    54 1
    58    29    55 1
    59    30    56 1
    60    31    57 1
@<TRIPOS>SUBSTRUCTURE
     1 QRX         1 TEMP              0 ****  ****    0 ROOT
