@<TRIPOS>MOLECULE
QSC
   21    21     1     0     0
SMALL
bcc


@<TRIPOS>ATOM
      1 CAE          0.0000     0.0000     0.0000 c3         1 QSC      -0.003100
      2 CAT          2.9560    -0.0010     4.0260 ca         1 QSC      -0.048000
      3 CAY          2.9210    -1.1790     3.3050 ca         1 QSC      -0.065500
      4 CAZ          2.5280     1.1780     3.4460 ca         1 QSC      -0.065500
      5 CBE          2.4590    -1.1790     2.0020 ca         1 QSC      -0.085000
      6 CBF          2.0670     1.1780     2.1420 ca         1 QSC      -0.085000
      7 NBR          2.0190     1.2010    -0.6920 nz         1 QSC       0.058400
      8 CCI          2.0330     0.0000     1.4210 ca         1 QSC      -0.190300
      9 CCL          1.5310     0.0000     0.0000 c3         1 QSC       0.011800
     10 HAE         -0.3610    -0.1520     1.0100 hc         1 QSC       0.038367
     11 HAEA        -0.3610     0.9500    -0.3740 hc         1 QSC       0.038367
     12 HAEB        -0.3610    -0.7990    -0.6360 hc         1 QSC       0.038367
     13 HAZ          2.5550     2.1020     4.0110 ha         1 QSC       0.125500
     14 HBE          2.4310    -2.1030     1.4370 ha         1 QSC       0.102500
     15 HBF          1.7320     2.1020     1.6860 ha         1 QSC       0.102500
     16 HNBR         1.8550     1.1090    -1.6750 hn         1 QSC       0.228467
     17 HCL          1.8920    -0.8840    -0.5110 hx         1 QSC       0.088700
     18 H2           3.0010     1.3050    -0.5260 hn         1 QSC       0.228467
     19 HAT          3.3180    -0.0020     5.0470 ha         1 QSC       0.126000
     20 HBR3         1.5350     2.0050    -0.3460 hn         1 QSC       0.228467
     21 HAY          3.2560    -2.1030     3.7610 ha         1 QSC       0.125500
@<TRIPOS>BOND
     1     1     9 1   
     2     1    10 1   
     3     1    11 1   
     4     1    12 1   
     5     2     3 ar  
     6     2     4 ar  
     7     2    19 1   
     8     3     5 ar  
     9     3    21 1   
    10     4     6 ar  
    11     4    13 1   
    12     5     8 ar  
    13     5    14 1   
    14     6     8 ar  
    15     6    15 1   
    16     7     9 1   
    17     7    16 1   
    18     7    18 1   
    19     7    20 1   
    20     8     9 1   
    21     9    17 1   
@<TRIPOS>SUBSTRUCTURE
     1 QSC         1 TEMP              0 ****  ****    0 ROOT
