@<TRIPOS>MOLECULE
molecule
   21    21     1     0     0
SMALL
bcc


@<TRIPOS>ATOM
      1 CAE          0.0000     0.0000     0.0000 c3         1 QSC      -0.115100
      2 CAT          2.9560    -0.0010     4.0260 ca         1 QSC      -0.084000
      3 CAY          2.9210    -1.1790     3.3050 ca         1 QSC      -0.100000
      4 CAZ          2.5280     1.1780     3.4460 ca         1 QSC      -0.100000
      5 CBE          2.4590    -1.1790     2.0020 ca         1 QSC      -0.115000
      6 CBF          2.0670     1.1780     2.1420 ca         1 QSC      -0.115000
      7 NBR          2.0190     1.2010    -0.6920 nz         1 QSC      -0.810600
      8 CCI          2.0330     0.0000     1.4210 ca         1 QSC      -0.174300
      9 CCL          1.5310     0.0000     0.0000 c3         1 QSC       0.166800
     10 HAE         -0.3610    -0.1520     1.0100 hc         1 QSC       0.077033
     11 HAEA        -0.3610     0.9500    -0.3740 hc         1 QSC       0.077033
     12 HAEB        -0.3610    -0.7990    -0.6360 hc         1 QSC       0.077033
     13 HAZ          2.5550     2.1020     4.0110 ha         1 QSC       0.160000
     14 HBE          2.4310    -2.1030     1.4370 ha         1 QSC       0.128000
     15 HBF          1.7320     2.1020     1.6860 ha         1 QSC       0.128000
     16 HNBR         1.8550     1.1090    -1.6750 hn         1 QSC       0.455133
     17 HCL          1.8920    -0.8840    -0.5110 hx         1 QSC       0.114700
     18 H2           3.0010     1.3050    -0.5260 hn         1 QSC       0.455133
     19 HAT          3.3180    -0.0020     5.0470 ha         1 QSC       0.161000
     20 HBR3         1.5350     2.0050    -0.3460 hn         1 QSC       0.455133
     21 HAY          3.2560    -2.1030     3.7610 ha         1 QSC       0.160000
@<TRIPOS>BOND
     1     1     9 1
     2     2     3 ar
     3     2     4 ar
     4     3     5 ar
     5     4     6 ar
     6     5     8 ar
     7     6     8 ar
     8     7     9 1
     9     8     9 1
    10     1    10 1
    11     1    11 1
    12     1    12 1
    13     2    19 1
    14     3    21 1
    15     4    13 1
    16     5    14 1
    17     6    15 1
    18     7    16 1
    19     9    17 1
    20     7    18 1
    21    20     7 1
@<TRIPOS>SUBSTRUCTURE
     1 QSC         1 TEMP              0 ****  ****    0 ROOT
