@<TRIPOS>MOLECULE
molecule
   56    58     1     0     0
SMALL
bcc


@<TRIPOS>ATOM
      1 N            0.0000     0.0000     0.0000 nz         1 QSI      -0.808600
      2 CA           1.4690     0.0000     0.0000 c3         1 QSI       0.020500
      3 CB           1.9790     0.0000     1.4420 c3         1 QSI      -0.093400
      4 CG           1.4690     1.2500     2.1640 c3         1 QSI      -0.183400
      5 CD           1.9710     1.2490     3.5840 c          1 QSI       0.485100
      6 OE1          2.6700     0.3410     3.9800 o          1 QSI      -0.349100
      7 NE2          1.6450     2.2600     4.4140 nz         1 QSI      -0.683400
      8 C            1.9710    -1.2280    -0.7110 c          1 QSI       0.666100
      9 O            1.3160    -2.2490    -0.6940 o          1 QSI      -0.495100
     10 N10          3.1470    -1.1950    -1.3660 ns         1 QSI      -0.642300
     11 S            3.7000    -2.5450    -2.1480 s6         1 QSI       1.620100
     12 O1S          4.8530    -2.1320    -2.8680 o          1 QSI      -0.588300
     13 O2S          3.6650    -3.5910    -1.1840 o          1 QSI      -0.588300
     14 O5'          2.6660    -2.9180    -3.2000 os         1 QSI      -0.497500
     15 C5'          3.0290    -2.2290    -4.3970 c3         1 QSI       0.117400
     16 C4'          2.0250    -2.5610    -5.5010 c3         1 QSI       0.131100
     17 O4'          0.7130    -2.1170    -5.1180 os         1 QSI      -0.432600
     18 C1'          0.0420    -1.6930    -6.3230 c3         1 QSI       0.259800
     19 N9          -1.0610    -0.7830    -6.0080 na         1 QSI      -0.251000
     20 C4          -2.2060    -0.6080    -6.7430 ca         1 QSI       0.469800
     21 N3          -2.6920    -1.1350    -7.8620 nb         1 QSI      -0.742000
     22 C2          -3.8630    -0.7560    -8.3290 ca         1 QSI       0.731900
     23 N1          -4.6090     0.1490    -7.7210 nb         1 QSI      -0.755000
     24 C6          -4.2080     0.7270    -6.5940 ca         1 QSI       0.788200
     25 N6          -4.9970     1.6730    -5.9650 nv         1 QSI      -1.073500
     26 C5          -2.9650     0.3530    -6.0550 ca         1 QSI      -0.174200
     27 N7          -2.2530     0.7170    -4.9610 nc         1 QSI      -0.584100
     28 C8          -1.1360     0.0490    -4.9310 cd         1 QSI       0.395700
     29 C2'          1.1520    -0.9570    -7.1150 c3         1 QSI       0.098100
     30 O2'          0.8720    -0.9670    -8.5160 oh         1 QSI      -0.541800
     31 C3'          2.4030    -1.8170    -6.7950 c3         1 QSI       0.091100
     32 O3'          2.6590    -2.7410    -7.8560 oh         1 QSI      -0.552800
     33 HN1         -0.3340     0.8890    -0.3150 hn         1 QSI       0.472800
     34 HN2         -0.3340    -0.7180    -0.6130 hn         1 QSI       0.472800
     35 HA           1.8290     0.8850    -0.5100 hx         1 QSI       0.124700
     36 HB1          1.6190    -0.8850     1.9530 hc         1 QSI       0.124200
     37 HB2          3.0620     0.0010     1.4420 hc         1 QSI       0.124200
     38 HG1          1.8290     2.1350     1.6530 hc         1 QSI       0.089700
     39 HG2          0.3850     1.2490     2.1640 hc         1 QSI       0.089700
     40 HN21         1.8250     3.1350     3.9620 hn         1 QSI       0.493133
     41 HN22         0.6740     2.2000     4.6480 hn         1 QSI       0.493133
     42 HN0          3.6950    -0.3580    -1.3660 hn         1 QSI       0.352500
     43 H5'1         4.0200    -2.5390    -4.7060 h1         1 QSI       0.077200
     44 H5'2         3.0240    -1.1620    -4.2140 h1         1 QSI       0.077200
     45 H4'          2.0110    -3.6290    -5.6840 h1         1 QSI       0.114700
     46 H1'         -0.3130    -2.5510    -6.8800 h2         1 QSI       0.135700
     47 H2          -4.2280    -1.2020    -9.2470 h5         1 QSI       0.082100
     48 HN61        -5.7260     1.3830    -5.3430 hn         1 QSI       0.448300
     49 HN62        -4.8770     2.6440    -6.1760 hn         1 QSI       0.448300
     50 H8          -0.3770     0.1420    -4.1630 h5         1 QSI       0.040800
     51 H2'          1.2790     0.0540    -6.7470 h1         1 QSI       0.049700
     52 HO2          1.1950    -0.1720    -8.9060 ho         1 QSI       0.417000
     53 H3'          3.2630    -1.1800    -6.6250 h1         1 QSI       0.047700
     54 HO3          3.5480    -2.6410    -8.1520 ho         1 QSI       0.420000
     55 HN3         -0.3340    -0.1740     0.9270 hn         1 QSI       0.472800
     56 HE23         2.2120     2.2120     5.2370 hn         1 QSI       0.493133
@<TRIPOS>BOND
     1     1     2 1
     2     1    33 1
     3     1    34 1
     4     2     3 1
     5     2     8 1
     6     2    35 1
     7     3     4 1
     8     3    36 1
     9     3    37 1
    10     4     5 1
    11     4    38 1
    12     4    39 1
    13     5     6 2
    14     5     7 1
    15     7    40 1
    16     7    41 1
    17     8     9 2
    18     8    10 1
    19    10    11 1
    20    10    42 1
    21    11    12 2
    22    11    13 2
    23    11    14 1
    24    14    15 1
    25    15    16 1
    26    15    43 1
    27    15    44 1
    28    16    17 1
    29    16    31 1
    30    16    45 1
    31    17    18 1
    32    18    19 1
    33    18    29 1
    34    18    46 1
    35    19    20 1
    36    19    28 1
    37    20    21 ar
    38    20    26 ar
    39    21    22 ar
    40    22    23 ar
    41    22    47 1
    42    23    24 ar
    43    24    25 1
    44    24    26 ar
    45    25    48 1
    46    25    49 1
    47    26    27 1
    48    27    28 2
    49    28    50 1
    50    29    30 1
    51    29    31 1
    52    29    51 1
    53    30    52 1
    54    31    32 1
    55    31    53 1
    56    32    54 1
    57    55     1 1
    58    56     7 1
@<TRIPOS>SUBSTRUCTURE
     1 QSI         1 TEMP              0 ****  ****    0 ROOT
