@<TRIPOS>MOLECULE
QSI
   56    58     1     0     0
SMALL
bcc


@<TRIPOS>ATOM
      1 N            0.0000     0.0000     0.0000 nz         1 QSI       0.070400
      2 CA           1.4690     0.0000     0.0000 c3         1 QSI      -0.165500
      3 CB           1.9790     0.0000     1.4420 c3         1 QSI      -0.016400
      4 CG           1.4690     1.2500     2.1640 c3         1 QSI      -0.110400
      5 CD           1.9710     1.2490     3.5840 c          1 QSI       0.313100
      6 OE1          2.6700     0.3410     3.9800 o          1 QSI      -0.351100
      7 NE2          1.6450     2.2600     4.4140 nz         1 QSI       0.210600
      8 C            1.9710    -1.2280    -0.7110 c          1 QSI       0.632100
      9 O            1.3160    -2.2490    -0.6940 o          1 QSI      -0.540100
     10 N10          3.1470    -1.1950    -1.3660 ns         1 QSI      -0.310300
     11 S            3.7000    -2.5450    -2.1480 s6         1 QSI       1.360100
     12 O1S          4.8530    -2.1320    -2.8680 o          1 QSI      -0.545800
     13 O2S          3.6650    -3.5910    -1.1840 o          1 QSI      -0.545800
     14 O5'          2.6660    -2.9180    -3.2000 os         1 QSI      -0.408500
     15 C5'          3.0290    -2.2290    -4.3970 c3         1 QSI       0.210400
     16 C4'          2.0250    -2.5610    -5.5010 c3         1 QSI       0.153100
     17 O4'          0.7130    -2.1170    -5.1180 os         1 QSI      -0.421600
     18 C1'          0.0420    -1.6930    -6.3230 c3         1 QSI       0.153800
     19 N9          -1.0610    -0.7830    -6.0080 na         1 QSI       0.212000
     20 C4          -2.2060    -0.6080    -6.7430 ca         1 QSI       0.250800
     21 N3          -2.6920    -1.1350    -7.8620 nb         1 QSI      -0.603000
     22 C2          -3.8630    -0.7560    -8.3290 ca         1 QSI       0.665900
     23 N1          -4.6090     0.1490    -7.7210 nb         1 QSI      -0.637000
     24 C6          -4.2080     0.7270    -6.5940 ca         1 QSI       0.605200
     25 N6          -4.9970     1.6730    -5.9650 nv         1 QSI      -0.645500
     26 C5          -2.9650     0.3530    -6.0550 ca         1 QSI      -0.195200
     27 N7          -2.2530     0.7170    -4.9610 nc         1 QSI      -0.501100
     28 C8          -1.1360     0.0490    -4.9310 cd         1 QSI       0.222700
     29 C2'          1.1520    -0.9570    -7.1150 c3         1 QSI       0.133100
     30 O2'          0.8720    -0.9670    -8.5160 oh         1 QSI      -0.524800
     31 C3'          2.4030    -1.8170    -6.7950 c3         1 QSI       0.135100
     32 O3'          2.6590    -2.7410    -7.8560 oh         1 QSI      -0.534800
     33 HN1         -0.3340     0.8890    -0.3150 hn         1 QSI       0.240133
     34 HN2         -0.3340    -0.7180    -0.6130 hn         1 QSI       0.240133
     35 HA           1.8290     0.8850    -0.5100 hx         1 QSI       0.096700
     36 HB1          1.6190    -0.8850     1.9530 hc         1 QSI       0.082200
     37 HB2          3.0620     0.0010     1.4420 hc         1 QSI       0.082200
     38 HG1          1.8290     2.1350     1.6530 hc         1 QSI       0.050700
     39 HG2          0.3850     1.2490     2.1640 hc         1 QSI       0.050700
     40 HN21         1.8250     3.1350     3.9620 hn         1 QSI       0.257800
     41 HN22         0.6740     2.2000     4.6480 hn         1 QSI       0.257800
     42 HN0          3.6950    -0.3580    -1.3660 hn         1 QSI       0.240500
     43 H5'1         4.0200    -2.5390    -4.7060 h1         1 QSI       0.032200
     44 H5'2         3.0240    -1.1620    -4.2140 h1         1 QSI       0.032200
     45 H4'          2.0110    -3.6290    -5.6840 h1         1 QSI       0.071700
     46 H1'         -0.3130    -2.5510    -6.8800 h2         1 QSI       0.090700
     47 H2          -4.2280    -1.2020    -9.2470 h5         1 QSI       0.013100
     48 HN61        -5.7260     1.3830    -5.3430 hn         1 QSI       0.285300
     49 HN62        -4.8770     2.6440    -6.1760 hn         1 QSI       0.285300
     50 H8          -0.3770     0.1420    -4.1630 h5         1 QSI      -0.005200
     51 H2'          1.2790     0.0540    -6.7470 h1         1 QSI       0.011700
     52 HO2          1.1950    -0.1720    -8.9060 ho         1 QSI       0.400000
     53 H3'          3.2630    -1.1800    -6.6250 h1         1 QSI       0.011700
     54 HO3          3.5480    -2.6410    -8.1520 ho         1 QSI       0.403000
     55 HN3         -0.3340    -0.1740     0.9270 hn         1 QSI       0.240133
     56 HE23         2.2120     2.2120     5.2370 hn         1 QSI       0.257800
@<TRIPOS>BOND
     1     1     2 1   
     2     1    33 1   
     3     1    34 1   
     4     1    55 1   
     5     2     3 1   
     6     2     8 1   
     7     2    35 1   
     8     3     4 1   
     9     3    36 1   
    10     3    37 1   
    11     4     5 1   
    12     4    38 1   
    13     4    39 1   
    14     5     6 2   
    15     5     7 1   
    16     7    40 1   
    17     7    41 1   
    18     7    56 1   
    19     8     9 2   
    20     8    10 1   
    21    10    11 1   
    22    10    42 1   
    23    11    12 2   
    24    11    13 2   
    25    11    14 1   
    26    14    15 1   
    27    15    16 1   
    28    15    43 1   
    29    15    44 1   
    30    16    17 1   
    31    16    31 1   
    32    16    45 1   
    33    17    18 1   
    34    18    19 1   
    35    18    29 1   
    36    18    46 1   
    37    19    20 1   
    38    19    28 1   
    39    20    21 ar  
    40    20    26 ar  
    41    21    22 ar  
    42    22    23 ar  
    43    22    47 1   
    44    23    24 ar  
    45    24    25 1   
    46    24    26 ar  
    47    25    48 1   
    48    25    49 1   
    49    26    27 1   
    50    27    28 2   
    51    28    50 1   
    52    29    30 1   
    53    29    31 1   
    54    29    51 1   
    55    30    52 1   
    56    31    32 1   
    57    31    53 1   
    58    32    54 1   
@<TRIPOS>SUBSTRUCTURE
     1 QSI         1 TEMP              0 ****  ****    0 ROOT
