@<TRIPOS>MOLECULE
QSN
   35    37     1     0     0
SMALL
bcc


@<TRIPOS>ATOM
      1 N1           0.0000     0.0000     0.0000 no         1 QSN       1.022200
      2 O2           1.2190     0.0000     0.0000 o          1 QSN      -0.421000
      3 O3          -0.6080     0.0000     1.0550 o          1 QSN      -0.421000
      4 C4          -0.7400     0.0080    -1.2820 ca         1 QSN      -0.358200
      5 C5          -0.2510     0.7430    -2.3570 ca         1 QSN      -0.134200
      6 C6          -0.9330     0.7580    -3.5620 ca         1 QSN       0.012000
      7 C8          -2.1140     0.0310    -3.6880 ca         1 QSN      -0.176600
      8 C9          -2.6040    -0.7120    -2.6000 ca         1 QSN      -0.055400
      9 C10         -1.9060    -0.7200    -1.4020 ca         1 QSN      -0.065000
     10 N12         -3.7840    -1.4270    -2.7570 ns         1 QSN       0.012900
     11 C14         -4.4450    -1.4090    -3.9280 c          1 QSN       0.575500
     12 N15         -4.0160    -0.7170    -4.9950 n          1 QSN       0.043200
     13 C16         -2.8810     0.0120    -4.9470 c          1 QSN       0.625100
     14 O17         -2.4990     0.6380    -5.9190 o          1 QSN      -0.637500
     15 N18         -4.7620    -0.7500    -6.1810 nu         1 QSN      -0.423100
     16 S20         -5.9520     0.3700    -6.4410 s6         1 QSN       0.956900
     17 O21         -6.4150     0.0890    -7.7560 o          1 QSN      -0.557800
     18 O22         -6.8120     0.2370    -5.3190 o          1 QSN      -0.557800
     19 C23         -5.0900     1.9650    -6.3980 c3         1 QSN       0.009700
     20 O27         -5.4740    -2.0490    -4.0250 o          1 QSN      -0.632500
     21 N28          0.9400     1.4740    -2.2200 na         1 QSN       0.364000
     22 C29          1.2000     2.4270    -1.2880 cc         1 QSN       0.222400
     23 N31          2.4090     2.8770    -1.4790 nd         1 QSN      -0.587000
     24 C32          2.9610     2.2390    -2.5230 cd         1 QSN       0.341200
     25 C34          2.0630     1.3550    -2.9960 cc         1 QSN      -0.420600
     26 H6          -0.5520     1.3310    -4.3980 ha         1 QSN       0.148000
     27 H10         -2.2380    -1.3500    -0.5860 ha         1 QSN       0.141000
     28 HN12        -4.1470    -1.9600    -1.9920 hn         1 QSN       0.204500
     29 HN18        -4.5910    -1.4660    -6.8590 hn         1 QSN       0.370800
     30 H23         -5.7540     2.7440    -6.7540 h1         1 QSN       0.070700
     31 H23A        -4.2140     1.9200    -7.0340 h1         1 QSN       0.070700
     32 H23B        -4.7880     2.1850    -5.3820 h1         1 QSN       0.070700
     33 H29          0.5160     2.7590    -0.5150 h5         1 QSN       0.022100
     34 H32          3.9580     2.4030    -2.9130 h4         1 QSN       0.006100
     35 H34          2.1990     0.6830    -3.8350 h4         1 QSN       0.155000
@<TRIPOS>BOND
     1     1     2 1   
     2     1     3 1   
     3     1     4 1   
     4     4     5 ar  
     5     4     9 ar  
     6     5     6 ar  
     7     5    21 1   
     8     6     7 ar  
     9     6    26 1   
    10     7     8 ar  
    11     7    13 1   
    12     8     9 ar  
    13     8    10 1   
    14     9    27 1   
    15    10    11 1   
    16    10    28 1   
    17    11    12 1   
    18    11    20 2   
    19    12    13 1   
    20    12    15 1   
    21    13    14 2   
    22    15    16 1   
    23    15    29 1   
    24    16    17 2   
    25    16    18 2   
    26    16    19 1   
    27    19    30 1   
    28    19    31 1   
    29    19    32 1   
    30    21    22 1   
    31    21    25 1   
    32    22    23 2   
    33    22    33 1   
    34    23    24 1   
    35    24    25 2   
    36    24    34 1   
    37    25    35 1   
@<TRIPOS>SUBSTRUCTURE
     1 QSN         1 TEMP              0 ****  ****    0 ROOT
