@<TRIPOS>MOLECULE
QSO
   33    35     1     0     0
SMALL
bcc


@<TRIPOS>ATOM
      1 C2          0.0340    0.4560   -0.0610 cc        1 QSO      0.065100
      2 C4          2.0590    0.0350    1.2610 c         1 QSO      0.603900
      3 O4         -1.3490    0.9000    5.6960 oh        1 QSO     -0.484100
      4 C4A         1.2030    0.2600    2.4340 ca        1 QSO     -0.278600
      5 C8A        -0.1670    0.5390    2.2850 ca        1 QSO      0.202100
      6 C7         -0.4810    0.6860    4.6570 ca        1 QSO      0.216100
      7 C6          0.8800    0.4140    4.8640 ca        1 QSO     -0.348000
      8 C5          1.7100    0.2040    3.7550 ca        1 QSO      0.247100
      9 C8         -1.0270    0.7530    3.3690 ca        1 QSO     -0.229000
     10 C3          1.3610    0.1940   -0.0320 cd        1 QSO     -0.186400
     11 O1         -0.7710    0.6200    1.0420 os        1 QSO     -0.217200
     12 C1'         2.1040    0.0720   -1.2830 ca        1 QSO     -0.076800
     13 O2          3.2550   -0.2670    1.3550 o         1 QSO     -0.521100
     14 C2'         1.8050    0.9230   -2.3610 ca        1 QSO     -0.076500
     15 C3'         2.4830    0.8120   -3.5670 ca        1 QSO     -0.183500
     16 C4'         3.4850   -0.1670   -3.7050 ca        1 QSO      0.130100
     17 C5'         3.8010   -1.0160   -2.6380 ca        1 QSO     -0.183500
     18 C6'         3.1110   -0.8890   -1.4340 ca        1 QSO     -0.076500
     19 O5          4.0950   -0.2020   -4.9430 os        1 QSO     -0.327900
     20 O3          3.0410   -0.0640    3.8970 oh        1 QSO     -0.447100
     21 CM          5.1470   -1.1480   -5.0970 c3        1 QSO      0.113700
     22 H2         -0.5870    0.5700   -0.9670 h4        1 QSO      0.184000
     23 HO4        -0.8540    0.8290    6.5260 ho        1 QSO      0.427000
     24 H6          1.2900    0.3670    5.8820 ha        1 QSO      0.143000
     25 H8         -2.0930    0.9670    3.2160 ha        1 QSO      0.175000
     26 H2'         1.0310    1.6970   -2.2480 ha        1 QSO      0.143000
     27 H3'         2.2540    1.4760   -4.4120 ha        1 QSO      0.144500
     28 H5'         4.5880   -1.7760   -2.7330 ha        1 QSO      0.144500
     29 H6'         3.3730   -1.5440   -0.5870 ha        1 QSO      0.143000
     30 HO3         3.2520   -0.0690    4.8440 ho        1 QSO      0.421000
     31 HM1         5.9710   -0.9450   -4.3710 h1        1 QSO      0.044700
     32 HM2         4.7610   -2.1890   -4.9720 h1        1 QSO      0.044700
     33 HM3         5.4950   -0.9810   -6.1480 h1        1 QSO      0.044700
@<TRIPOS>BOND
     1    1   10 2   
     2    1   11 1   
     3    1   22 1   
     4    2    4 1   
     5    2   10 1   
     6    2   13 2   
     7    3    6 1   
     8    3   23 1   
     9    4    5 ar  
    10    4    8 ar  
    11    5    9 ar  
    12    5   11 1   
    13    6    7 ar  
    14    6    9 ar  
    15    7    8 ar  
    16    7   24 1   
    17    8   20 1   
    18    9   25 1   
    19   10   12 1   
    20   12   14 ar  
    21   12   18 ar  
    22   14   15 ar  
    23   14   26 1   
    24   15   16 ar  
    25   15   27 1   
    26   16   17 ar  
    27   16   19 1   
    28   17   18 ar  
    29   17   28 1   
    30   18   29 1   
    31   19   21 1   
    32   20   30 1   
    33   21   31 1   
    34   21   32 1   
    35   21   33 1   
@<TRIPOS>SUBSTRUCTURE
     1 QSO         1 TEMP              0 ****  ****    0 ROOT
