@<TRIPOS>MOLECULE
molecule
   33    35     1     0     0
SMALL
bcc


@<TRIPOS>ATOM
      1 C2           0.0000     0.0000     0.0000 cc         1 QSO       0.077100
      2 C4           2.0530     0.0000     1.3020 c          1 QSO       0.589900
      3 O4          -1.2250     1.1470     5.6910 oh         1 QSO      -0.518100
      4 C4A          1.2140     0.2930     2.4760 ca         1 QSO      -0.261600
      5 C8A         -0.1830     0.2910     2.3110 ca         1 QSO       0.188100
      6 C7          -0.4240     0.8620     4.6330 ca         1 QSO       0.188100
      7 C6           0.9550     0.8650     4.7960 ca         1 QSO      -0.265000
      8 C5           1.7810     0.5810     3.7250 ca         1 QSO       0.222100
      9 C8          -0.9910     0.5820     3.4000 ca         1 QSO      -0.212000
     10 C3           1.3570     0.0000     0.0000 cd         1 QSO      -0.219400
     11 O1          -0.7280    -0.0120     1.1170 os         1 QSO      -0.205200
     12 C1'          2.1210     0.0010    -1.2730 ca         1 QSO      -0.076800
     13 O2           3.2470    -0.2280     1.3990 o          1 QSO      -0.505100
     14 C2'          2.0420     1.0930    -2.1340 ca         1 QSO      -0.068000
     15 C3'          2.7520     1.0910    -3.3160 ca         1 QSO      -0.192500
     16 C4'          3.5450     0.0010    -3.6490 ca         1 QSO       0.147100
     17 C5'          3.6250    -1.0890    -2.7930 ca         1 QSO      -0.192500
     18 C6'          2.9210    -1.0900    -1.6070 ca         1 QSO      -0.068000
     19 O5           4.2430     0.0010    -4.8150 os         1 QSO      -0.328900
     20 O3           3.1290     0.5810     3.8800 oh         1 QSO      -0.475100
     21 CM           5.0380    -1.1530    -5.0950 c3         1 QSO       0.128700
     22 H2          -0.5160     0.0000    -0.9520 h4         1 QSO       0.190000
     23 HO4         -1.3770     2.0770     5.7300 ho         1 QSO       0.430000
     24 H6           1.3840     1.0920     5.7650 ha         1 QSO       0.152000
     25 H8          -2.0680     0.5960     3.2860 ha         1 QSO       0.160000
     26 H2'          1.4240     1.9440    -1.8740 ha         1 QSO       0.138000
     27 H3'          2.6910     1.9410    -3.9850 ha         1 QSO       0.140500
     28 H5'          4.2460    -1.9380    -3.0540 ha         1 QSO       0.140500
     29 H6'          2.9840    -1.9410    -0.9390 ha         1 QSO       0.138000
     30 HO3          3.3550     0.1050     4.6620 ho         1 QSO       0.430000
     31 HM1          5.7780    -1.2800    -4.3140 h1         1 QSO       0.042033
     32 HM2          4.4010    -2.0290    -5.1350 h1         1 QSO       0.042033
     33 HM3          5.5370    -1.0250    -6.0480 h1         1 QSO       0.042033
@<TRIPOS>BOND
     1    11     1 1
     2    11     5 1
     3     9     5 ar
     4     9     6 ar
     5     1    10 2
     6     3     6 1
     7     5     4 ar
     8     6     7 ar
     9    18    17 ar
    10    18    12 ar
    11    10    12 1
    12    10     2 1
    13    17    16 ar
    14    12    14 ar
    15     4     2 1
    16     4     8 ar
    17    21    19 1
    18     7     8 ar
    19     2    13 2
    20    16    19 1
    21    16    15 ar
    22    14    15 ar
    23     8    20 1
    24     1    22 1
    25     3    23 1
    26     7    24 1
    27     9    25 1
    28    14    26 1
    29    15    27 1
    30    17    28 1
    31    18    29 1
    32    20    30 1
    33    21    31 1
    34    21    32 1
    35    21    33 1
@<TRIPOS>SUBSTRUCTURE
     1 QSO         1 TEMP              0 ****  ****    0 ROOT
