@<TRIPOS>MOLECULE
molecule
   44    46     1     0     0
SMALL
bcc


@<TRIPOS>ATOM
      1 O2A          0.0000     0.0000     0.0000 o          1 QTP      -0.855500
      2 PA           1.6100     0.0000     0.0000 p5         1 QTP       1.443800
      3 O1A          2.1020     0.0000     1.3960 o          1 QTP      -0.855500
      4 O3A          2.1460    -1.3140    -0.7580 os         1 QTP      -0.724800
      5 PB           2.2370    -2.8740    -0.3670 p5         1 QTP       1.517800
      6 O1B          0.9620    -3.3010     0.2510 o          1 QTP      -0.873500
      7 O2B          3.4410    -3.0950     0.6790 o          1 QTP      -0.873500
      8 O3B          2.5100    -3.7450    -1.6930 os         1 QTP      -0.734800
      9 PG           2.3090    -5.2960    -2.0730 p5         1 QTP       1.335900
     10 O3G          0.9820    -5.7510    -1.6010 o          1 QTP      -0.837500
     11 O2G          2.4010    -5.4730    -3.6700 o          1 QTP      -0.837500
     12 O1G          3.4590    -6.1750    -1.3680 o          1 QTP      -0.837500
     13 O5'          2.1470     1.3150    -0.7580 os         1 QTP      -0.586200
     14 C5'          1.9280     2.6390    -0.2690 c3         1 QTP       0.242400
     15 C4'          2.5670     3.6480    -1.2250 c3         1 QTP       0.129100
     16 C3'          2.4180     5.0830    -0.6720 c3         1 QTP       0.100100
     17 O3'          3.6190     5.4930    -0.0150 oh         1 QTP      -0.602800
     18 C2'          2.1670     5.9460    -1.9290 c3         1 QTP      -0.155400
     19 C1'          2.1940     4.9310    -3.0930 c3         1 QTP       0.255800
     20 O4'          1.8620     3.6620    -2.4860 os         1 QTP      -0.371600
     21 N9           1.1970     5.2890    -4.1050 na         1 QTP      -0.254000
     22 C4           1.3690     6.1840    -5.1380 ca         1 QTP       0.436800
     23 C5           0.1520     6.1990    -5.8400 ca         1 QTP      -0.032900
     24 N7          -0.6820     5.3310    -5.2140 nc         1 QTP      -0.639100
     25 C8          -0.0670     4.7940    -4.2010 cd         1 QTP       0.418700
     26 N3           2.3780     6.9460    -5.5320 nb         1 QTP      -0.760000
     27 C2           2.2780     7.7330    -6.5820 ca         1 QTP       0.364200
     28 C1           1.1100     7.8010    -7.3250 ca         1 QTP      -0.271300
     29 C6           0.0220     7.0320    -6.9560 ca         1 QTP      -0.109300
     30 C7          -1.2630     7.0810    -7.7420 c3         1 QTP      -0.016800
     31 H5           2.3740     2.7400     0.7130 h1         1 QTP       0.028200
     32 H6           0.8630     2.8290    -0.2030 h1         1 QTP       0.028200
     33 H7           3.6130     3.4150    -1.3830 h1         1 QTP       0.075700
     34 H8           1.5710     5.1420     0.0010 h1         1 QTP       0.046700
     35 H9           3.4010     5.9710     0.7680 ho         1 QTP       0.384000
     36 H10          2.9560     6.6790    -2.0480 hc         1 QTP       0.053700
     37 H11          1.1980     6.4270    -1.8700 hc         1 QTP       0.053700
     38 H12          3.1840     4.8890    -3.5300 h2         1 QTP       0.076700
     39 H13         -0.4980     4.0590    -3.5320 h5         1 QTP       0.099800
     40 H14          3.1280     8.3380    -6.8740 h4         1 QTP      -0.018900
     41 H15          1.0480     8.4560    -8.1860 ha         1 QTP       0.093000
     42 H16         -1.2640     6.2910    -8.4830 hc         1 QTP       0.021700
     43 H17         -1.3470     8.0410    -8.2370 hc         1 QTP       0.021700
     44 H18         -2.1020     6.9460    -7.0700 hc         1 QTP       0.021700
@<TRIPOS>BOND
     1    30    29 1
     2    28    29 ar
     3    28    27 ar
     4    29    23 ar
     5    27    26 ar
     6    23    24 1
     7    23    22 ar
     8    26    22 ar
     9    24    25 2
    10    22    21 1
    11    25    21 1
    12    21    19 1
    13    19    18 1
    14    19    20 1
    15    18    16 1
    16     3     2 1
    17    20    15 1
    18    16    15 1
    19    16    17 1
    20    13     2 1
    21    13    14 1
    22     4     2 1
    23     4     5 1
    24     6     5 1
    25     2     1 1
    26    15    14 1
    27    10     9 1
    28     8     5 1
    29     8     9 1
    30     5     7 1
    31     9    12 1
    32     9    11 1
    33    14    31 1
    34    14    32 1
    35    15    33 1
    36    16    34 1
    37    17    35 1
    38    18    36 1
    39    18    37 1
    40    19    38 1
    41    25    39 1
    42    27    40 1
    43    28    41 1
    44    30    42 1
    45    30    43 1
    46    30    44 1
@<TRIPOS>SUBSTRUCTURE
     1 QTP         1 TEMP              0 ****  ****    0 ROOT
