@<TRIPOS>MOLECULE
molecule
   29    30     1     0     0
SMALL
bcc


@<TRIPOS>ATOM
      1 O12          0.0000     0.0000     0.0000 o          1 QUA      -0.819800
      2 C11          1.2370     0.0000     0.0000 c          1 QUA       0.761100
      3 C2           2.0800     0.0000     1.1840 ca         1 QUA       0.398800
      4 N1           3.4110    -0.0060     0.9530 nb         1 QUA      -0.580000
      5 C3           1.5110    -0.0000     2.4460 ca         1 QUA      -0.197300
      6 C9           4.2230    -0.0250     2.0390 ca         1 QUA       0.375600
      7 C4           2.3610    -0.0130     3.5450 ca         1 QUA      -0.074300
      8 C8           5.7090     0.0390     1.7860 c3         1 QUA       0.109800
      9 C10          3.7430    -0.0310     3.3520 ca         1 QUA      -0.163100
     10 O16          6.0980     1.4040     1.6100 oh         1 QUA      -0.598800
     11 C7           6.5480    -0.5630     2.9220 c3         1 QUA      -0.054200
     12 C13          1.7420     0.0010     4.9070 c3         1 QUA       0.194400
     13 O15          1.6270     1.3570     5.3500 oh         1 QUA      -0.595800
     14 C5           4.6700    -0.0490     4.4850 ce         1 QUA      -0.086200
     15 C14          0.3520    -0.6340     4.9340 c3         1 QUA      -0.119100
     16 C6           5.9690    -0.3060     4.2860 c2         1 QUA      -0.185200
     17 O1'          1.9590     0.0020    -1.1540 o          1 QUA      -0.819800
     18 HC3          0.4640    -0.2510     2.5680 ha         1 QUA       0.159000
     19 HC8          5.9250    -0.5060     0.8750 h1         1 QUA       0.049700
     20 H16          6.5050     1.5080     0.7660 ho         1 QUA       0.397000
     21 HC71         7.5340    -0.1150     2.8850 hc         1 QUA       0.048200
     22 HC72         6.5940    -1.6350     2.7730 hc         1 QUA       0.048200
     23 H13          2.3870    -0.5380     5.5900 h1         1 QUA       0.017700
     24 H15          1.6750     1.3850     6.2910 ho         1 QUA       0.383000
     25 HC5          4.3020     0.1300     5.4880 ha         1 QUA       0.116000
     26 H141        -0.3550     0.0240     4.4430 hc         1 QUA       0.042033
     27 H142         0.3800    -1.5850     4.4160 hc         1 QUA       0.042033
     28 H143         0.0470    -0.7910     5.9610 hc         1 QUA       0.042033
     29 HC6          6.5240    -0.6900     5.1330 ha         1 QUA       0.104000
@<TRIPOS>BOND
     1     1     2 1
     2     2     3 1
     3     2    17 1
     4     3     4 ar
     5     3     5 ar
     6     4     6 ar
     7     5     7 ar
     8     5    18 1
     9     6     8 1
    10     6     9 ar
    11     7     9 ar
    12     7    12 1
    13     8    10 1
    14     8    11 1
    15     8    19 1
    16     9    14 1
    17    10    20 1
    18    11    16 1
    19    11    21 1
    20    11    22 1
    21    12    13 1
    22    12    15 1
    23    12    23 1
    24    13    24 1
    25    14    16 2
    26    14    25 1
    27    15    26 1
    28    15    27 1
    29    15    28 1
    30    16    29 1
@<TRIPOS>SUBSTRUCTURE
     1 QUA         1 TEMP              0 ****  ****    0 ROOT
