@<TRIPOS>MOLECULE
QUA
   29    30     1     0     0
SMALL
bcc


@<TRIPOS>ATOM
      1 O12         0.6510   -1.0350   -0.4150 o         1 QUA     -0.803300
      2 C11         1.1770    0.0470   -0.0550 c         1 QUA      0.826100
      3 C2          2.1410   -0.0240    1.1560 ca        1 QUA      0.395800
      4 N1          3.4690   -0.0820    0.9720 nb        1 QUA     -0.663000
      5 C3          1.5540   -0.0240    2.4500 ca        1 QUA     -0.221300
      6 C9          4.2660   -0.1270    2.0730 ca        1 QUA      0.364600
      7 C4          2.3630   -0.0650    3.5770 ca        1 QUA     -0.102300
      8 C8          5.7610   -0.1920    1.8140 c3        1 QUA      0.108800
      9 C10         3.7670   -0.1010    3.3940 ca        1 QUA     -0.175100
     10 O16         6.2600    1.0660    1.3640 oh        1 QUA     -0.618800
     11 C7          6.6120   -0.5840    3.0220 c3        1 QUA     -0.042200
     12 C13         1.7840   -0.0980    4.9630 c3        1 QUA      0.186400
     13 O15         2.0960    1.0810    5.7000 oh        1 QUA     -0.612800
     14 C5          4.6910   -0.0920    4.5090 ce        1 QUA     -0.094200
     15 C14         0.2810   -0.3250    4.9890 c3        1 QUA     -0.122100
     16 C6          6.0040   -0.3020    4.3390 c2        1 QUA     -0.185200
     17 O1'         0.9650    1.1870   -0.5380 o         1 QUA     -0.803300
     18 HC3         0.4570    0.0030    2.5130 ha        1 QUA      0.149000
     19 HC8         5.9500   -0.9490    0.9930 h1        1 QUA      0.045700
     20 H16         5.6510    1.3930    0.6900 ho        1 QUA      0.422000
     21 HC71        6.8250   -1.6870    2.9570 hc        1 QUA      0.051200
     22 HC72        7.5950   -0.0450    2.9410 hc        1 QUA      0.051200
     23 H13         2.2880   -0.9200    5.5530 h1        1 QUA      0.065700
     24 H15         1.8880    1.8330    5.1350 ho        1 QUA      0.405000
     25 HC5         4.2700    0.1210    5.5060 ha        1 QUA      0.136000
     26 H141        0.0220   -1.2560    4.4320 hc        1 QUA      0.042033
     27 H142       -0.0590   -0.4250    6.0480 hc        1 QUA      0.042033
     28 H143       -0.2580    0.5370    4.5290 hc        1 QUA      0.042033
     29 HC6         6.7000   -0.2830    5.1920 ha        1 QUA      0.110000
@<TRIPOS>BOND
     1    1    2 1   
     2    2    3 1   
     3    2   17 1   
     4    3    4 ar  
     5    3    5 ar  
     6    4    6 ar  
     7    5    7 ar  
     8    5   18 1   
     9    6    8 1   
    10    6    9 ar  
    11    7    9 ar  
    12    7   12 1   
    13    8   10 1   
    14    8   11 1   
    15    8   19 1   
    16    9   14 1   
    17   10   20 1   
    18   11   16 1   
    19   11   21 1   
    20   11   22 1   
    21   12   13 1   
    22   12   15 1   
    23   12   23 1   
    24   13   24 1   
    25   14   16 2   
    26   14   25 1   
    27   15   26 1   
    28   15   27 1   
    29   15   28 1   
    30   16   29 1   
@<TRIPOS>SUBSTRUCTURE
     1 QUA         1 TEMP              0 ****  ****    0 ROOT
