@<TRIPOS>MOLECULE
QUB
   28    30     1     0     0
SMALL
bcc


@<TRIPOS>ATOM
      1 C5           0.0000     0.0000     0.0000 ca         1 QUB      -0.067000
      2 C6           1.4010     0.0000     0.0000 ca         1 QUB      -0.153000
      3 C7           2.0740     0.0000     1.1850 ca         1 QUB      -0.070000
      4 C8           1.3870     0.0000     2.3970 ca         1 QUB      -0.100000
      5 C9           0.0270    -0.0010     2.4320 ca         1 QUB      -0.064000
      6 C4          -0.7030     0.0010     1.2290 ca         1 QUB      -0.044000
      7 N1          -2.0390     0.0020     1.2350 n2         1 QUB       0.002000
      8 C3          -2.7360     0.0030     0.1230 c2         1 QUB      -0.094000
      9 C2          -2.1270     0.0030    -1.1250 c2         1 QUB      -0.047000
     10 C1          -0.7380     0.0050    -1.2120 c3         1 QUB      -0.128000
     11 C10         -0.0560     0.0050    -2.5200 c2         1 QUB      -0.374000
     12 N2           1.2320     0.1150    -2.5780 n2         1 QUB       0.085000
     13 O1           1.8860     0.1150    -3.8340 os         1 QUB      -0.177000
     14 C11          3.3070     0.2420    -3.7480 c3         1 QUB       0.095000
     15 C12          3.8960     0.2310    -5.1350 c2         1 QUB      -0.157000
     16 C13          4.8180     1.1020    -5.4630 c2         1 QUB      -0.145000
     17 H1           1.9460    -0.0000    -0.9360 ha         1 QUB       0.166000
     18 H2           3.1580     0.0010     1.1850 ha         1 QUB       0.103000
     19 H3           1.9440     0.0000     3.3250 ha         1 QUB       0.105000
     20 H4          -0.4920    -0.0000     3.3830 ha         1 QUB       0.118000
     21 H5          -3.8180     0.0010     0.1810 h4         1 QUB       0.122000
     22 H6          -2.7290     0.0030    -2.0260 ha         1 QUB       0.130000
     23 H7          -0.2520     0.8940    -1.9320 DU         1 QUB       0.321000
     24 H10          3.7100    -0.5860    -3.1780 h1         1 QUB       0.043000
     25 H11          3.5580     1.1740    -3.2570 h1         1 QUB       0.043000
     26 H12          3.5570    -0.4980    -5.8620 ha         1 QUB       0.114000
     27 H14          5.1580     1.8300    -4.7370 ha         1 QUB       0.085500
     28 H15          5.2420     1.0930    -6.4600 ha         1 QUB       0.085500
@<TRIPOS>BOND
     1     1     2 1   
     2     1     6 1   
     3     1    10 1   
     4     2     3 1   
     5     2    17 1   
     6     3     4 1   
     7     3    18 1   
     8     4     5 1   
     9     4    19 1   
    10     5     6 1   
    11     5    20 1   
    12     6     7 1   
    13     7     8 1   
    14     8     9 1   
    15     8    21 1   
    16     9    10 1   
    17     9    22 1   
    18    10    11 1   
    19    10    23 1   
    20    11    12 1   
    21    11    23 1   
    22    12    13 1   
    23    13    14 1   
    24    14    15 1   
    25    14    24 1   
    26    14    25 1   
    27    15    16 1   
    28    15    26 1   
    29    16    27 1   
    30    16    28 1   
@<TRIPOS>SUBSTRUCTURE
     1 QUB         1 TEMP              0 ****  ****    0 ROOT
