@<TRIPOS>MOLECULE
molecule
   28    29     1     0     0
SMALL
bcc


@<TRIPOS>ATOM
      1 C5           0.0000     0.0000     0.0000 ca         1 QUB      -0.134300
      2 C6           1.4010     0.0000     0.0000 ca         1 QUB      -0.120000
      3 C7           2.0740     0.0000     1.1850 ca         1 QUB      -0.129000
      4 C8           1.3870     0.0000     2.3970 ca         1 QUB      -0.117000
      5 C9           0.0270    -0.0010     2.4320 ca         1 QUB      -0.168300
      6 C4          -0.7030     0.0010     1.2290 ca         1 QUB       0.416600
      7 N1          -2.0390     0.0020     1.2350 nb         1 QUB      -0.671000
      8 C3          -2.7360     0.0030     0.1230 ca         1 QUB       0.425200
      9 C2          -2.1270     0.0030    -1.1250 ca         1 QUB      -0.232300
     10 C1          -0.7380     0.0050    -1.2120 ca         1 QUB      -0.085900
     11 C10         -0.0560     0.0050    -2.5200 ce         1 QUB       0.437800
     12 N2           1.2320     0.1150    -2.5780 n2         1 QUB      -0.438200
     13 O1           1.8860     0.1150    -3.8340 os         1 QUB      -0.206300
     14 C11          3.3070     0.2420    -3.7480 c3         1 QUB       0.181600
     15 C12          3.8960     0.2310    -5.1350 c2         1 QUB      -0.174200
     16 C13          4.8180     1.1020    -5.4630 c2         1 QUB      -0.205000
     17 H1           1.9460    -0.0000    -0.9360 ha         1 QUB       0.183000
     18 H2           3.1580     0.0010     1.1850 ha         1 QUB       0.131000
     19 H3           1.9440     0.0000     3.3250 ha         1 QUB       0.132000
     20 H4          -0.4920    -0.0000     3.3830 ha         1 QUB       0.149000
     21 H5          -3.8180     0.0010     0.1810 h4         1 QUB       0.025100
     22 H6          -2.7290     0.0030    -2.0260 ha         1 QUB       0.140000
     23 H7          -0.6340    -0.0870    -3.4320 h4         1 QUB       0.008800
     24 H10          3.5580     1.1740    -3.2570 h1         1 QUB       0.041700
     25 H11          3.7100    -0.5860    -3.1780 h1         1 QUB       0.041700
     26 H12          3.5570    -0.4980    -5.8620 ha         1 QUB       0.135000
     27 H14          5.2420     1.0930    -6.4600 ha         1 QUB       0.117000
     28 H15          5.1580     1.8300    -4.7370 ha         1 QUB       0.117000
@<TRIPOS>BOND
     1    15    16 2
     2    15    14 1
     3    13    14 1
     4    13    12 1
     5    12    11 2
     6    11    10 1
     7     2     3 ar
     8     2     1 ar
     9     3     4 ar
    10    10     1 ar
    11    10     9 ar
    12     1     6 ar
    13     4     5 ar
    14     9     8 ar
    15     6     5 ar
    16     6     7 ar
    17     8     7 ar
    18     2    17 1
    19     3    18 1
    20     4    19 1
    21     5    20 1
    22     8    21 1
    23     9    22 1
    24    11    23 1
    25    14    24 1
    26    14    25 1
    27    15    26 1
    28    16    27 1
    29    16    28 1
@<TRIPOS>SUBSTRUCTURE
     1 QUB         1 TEMP              0 ****  ****    0 ROOT
