@<TRIPOS>MOLECULE
molecule
   72    76     1     0     0
SMALL
bcc


@<TRIPOS>ATOM
      1 C1           0.0000     0.0000     0.0000 ca         1 QUD      -0.139000
      2 C2           1.3820     0.0000     0.0000 ca         1 QUD      -0.085500
      3 C3          -0.6940     0.0000     1.1960 ca         1 QUD      -0.085500
      4 C4           5.5260     1.0000     3.1550 ca         1 QUD      -0.165300
      5 C5           2.0740     0.0000     1.1950 ca         1 QUD      -0.175000
      6 C6          -0.0070     0.0020     2.3940 ca         1 QUD      -0.175000
      7 C7           4.1660     1.0520     3.2070 ca         1 QUD      -0.069000
      8 C8           4.0270    -1.2740     3.8010 ca         1 QUD      -0.109000
      9 C9           5.4260    -1.3590     3.7540 ca         1 QUD      -0.193300
     10 C10          6.1860    -0.2060     3.4270 ca         1 QUD       0.465600
     11 C11          1.3810     0.0010     2.3980 ca         1 QUD       0.108100
     12 C12          3.4150    -0.0830     3.5300 ca         1 QUD       0.161100
     13 C13          8.1080    -1.4580     3.6490 ca         1 QUD       0.623000
     14 C14          8.1140    -3.6540     7.9500 c          1 QUD       0.663100
     15 C15          6.1100    -2.5570     4.0230 ca         1 QUD       0.057700
     16 C16         10.3210    -2.0220    11.2680 c3         1 QUD      -0.081400
     17 C17          8.5280    -6.5850     0.9460 c3         1 QUD      -0.083400
     18 C18          8.8190    -2.2560    11.4450 c3         1 QUD      -0.080400
     19 C19         10.5880    -1.4530     9.8740 c3         1 QUD      -0.080400
     20 C20          7.6660    -5.3380     0.7410 c3         1 QUD      -0.076900
     21 C21          8.2810    -7.1510     2.3460 c3         1 QUD      -0.076900
     22 C22          8.3290    -3.2480    10.3870 c3         1 QUD      -0.066400
     23 C23         10.0980    -2.4440     8.8160 c3         1 QUD      -0.066400
     24 C24          8.0330    -4.2850     1.7880 c3         1 QUD      -0.078900
     25 C25          8.6490    -6.0980     3.3940 c3         1 QUD      -0.078900
     26 C26          8.5970    -2.6780     8.9920 c3         1 QUD      -0.141700
     27 C27          7.7860    -4.8520     3.1890 c3         1 QUD      -0.085700
     28 C28          7.7780    -4.3110     5.6280 c3         1 QUD       0.098000
     29 C29          8.1540    -3.7990     4.2360 c3         1 QUD      -0.029000
     30 N30          7.4250    -2.5580     3.9600 na         1 QUD      -0.103900
     31 N31          7.5210    -0.3070     3.3870 nb         1 QUD      -0.637000
     32 N32          9.4890    -1.5270     3.5990 nv         1 QUD      -0.619900
     33 O34          7.6070    -4.7010     8.2900 o          1 QUD      -0.578100
     34 O35          2.0590     0.0010     3.5750 os         1 QUD      -0.243200
     35 H1          -0.5410    -0.0000    -0.9390 ha         1 QUD       0.147000
     36 H2           1.9230    -0.0010    -0.9390 ha         1 QUD       0.146500
     37 H3          -1.7770     0.0010     1.1930 ha         1 QUD       0.146500
     38 H5           3.1580    -0.0000     1.1940 ha         1 QUD       0.138500
     39 H6          -0.5510     0.0020     3.3310 ha         1 QUD       0.138500
     40 H4           6.0940     1.8880     2.9030 ha         1 QUD       0.186000
     41 H7           3.6580     1.9850     2.9970 ha         1 QUD       0.184000
     42 H8           3.4360    -2.1470     4.0500 ha         1 QUD       0.175000
     43 H15          5.5670    -3.4600     4.2770 h4         1 QUD       0.212000
     44 H321        10.0290    -1.3340     4.4190 hn         1 QUD       0.317700
     45 H322         9.9500    -1.7020     2.7280 hn         1 QUD       0.317700
     46 H26          8.0720    -1.7370     8.8820 hc         1 QUD       0.065700
     47 H33          8.6440    -2.4870     6.3610 hn         1 QUD       0.306500
     48 H162        10.6660    -1.3180    12.0160 hc         1 QUD       0.051200
     49 H181         8.6310    -2.6620    12.4320 hc         1 QUD       0.047950
     50 H182         8.2920    -1.3170    11.3290 hc         1 QUD       0.047950
     51 H191        10.0580    -0.5150     9.7610 hc         1 QUD       0.047950
     52 H192        11.6510    -1.2900     9.7490 hc         1 QUD       0.047950
     53 H171         9.5730    -6.3210     0.8440 hc         1 QUD       0.056700
     54 H172         8.2640    -7.3310     0.2050 hc         1 QUD       0.056700
     55 H201         6.6210    -5.6020     0.8480 hc         1 QUD       0.055950
     56 H202         7.8430    -4.9380    -0.2500 hc         1 QUD       0.055950
     57 H211         7.2350    -7.4110     2.4500 hc         1 QUD       0.055950
     58 H212         8.8940    -8.0320     2.4910 hc         1 QUD       0.055950
     59 H221         8.8600    -4.1860    10.5000 hc         1 QUD       0.050450
     60 H222         7.2660    -3.4110    10.5110 hc         1 QUD       0.050450
     61 H231        10.2860    -2.0390     7.8290 hc         1 QUD       0.050450
     62 H232        10.6250    -3.3840     8.9320 hc         1 QUD       0.050450
     63 H241         7.4200    -3.4040     1.6430 hc         1 QUD       0.046450
     64 H242         9.0800    -4.0250     1.6850 hc         1 QUD       0.046450
     65 H251         9.6950    -5.8340     3.2870 hc         1 QUD       0.046450
     66 H252         8.4730    -6.4990     4.3850 hc         1 QUD       0.046450
     67 H27          6.7410    -5.1180     3.2890 hc         1 QUD       0.063700
     68 H29          9.2200    -3.6080     4.1980 h1         1 QUD       0.121700
     69 H281         6.7010    -4.4110     5.6970 h1         1 QUD       0.078700
     70 H282         8.2410    -5.2760     5.7950 h1         1 QUD       0.078700
     71 N33          8.2470    -3.3620     6.6410 ns         1 QUD      -0.613900
     72 H161        10.8470    -2.9630    11.3800 hc         1 QUD       0.051200
@<TRIPOS>BOND
     1     1     2 ar
     2     1     3 ar
     3     2     5 ar
     4     3     6 ar
     5     4     7 ar
     6     4    10 ar
     7     5    11 ar
     8     6    11 ar
     9     7    12 ar
    10     8     9 ar
    11     8    12 ar
    12     9    10 ar
    13     9    15 ar
    14    10    31 ar
    15    11    34 1
    16    12    34 1
    17    13    30 1
    18    13    31 ar
    19    13    32 1
    20    14    26 1
    21    14    71 1
    22    14    33 2
    23    15    30 2
    24    16    18 1
    25    16    19 1
    26    17    20 1
    27    17    21 1
    28    18    22 1
    29    19    23 1
    30    20    24 1
    31    21    25 1
    32    22    26 1
    33    23    26 1
    34    24    27 1
    35    25    27 1
    36    27    29 1
    37    28    29 1
    38    28    71 1
    39    29    30 1
    40     1    35 1
    41     2    36 1
    42     3    37 1
    43     5    38 1
    44     6    39 1
    45     4    40 1
    46     7    41 1
    47     8    42 1
    48    15    43 1
    49    32    44 1
    50    32    45 1
    51    26    46 1
    52    71    47 1
    53    16    72 1
    54    16    48 1
    55    18    49 1
    56    18    50 1
    57    19    51 1
    58    19    52 1
    59    17    53 1
    60    17    54 1
    61    20    55 1
    62    20    56 1
    63    21    57 1
    64    21    58 1
    65    22    59 1
    66    22    60 1
    67    23    61 1
    68    23    62 1
    69    24    63 1
    70    24    64 1
    71    25    65 1
    72    25    66 1
    73    27    67 1
    74    29    68 1
    75    28    69 1
    76    28    70 1
@<TRIPOS>SUBSTRUCTURE
     1 QUD         1 TEMP              0 ****  ****    0 ROOT
