@<TRIPOS>MOLECULE
QUD
   72    76     1     0     0
SMALL
bcc


@<TRIPOS>ATOM
      1 C1           0.0000     0.0000     0.0000 ca         1 QUD      -0.114000
      2 C2           1.3820     0.0000     0.0000 ca         1 QUD      -0.049500
      3 C3          -0.6940     0.0000     1.1960 ca         1 QUD      -0.049500
      4 C4           5.5260     1.0000     3.1550 ca         1 QUD      -0.117300
      5 C5           2.0740     0.0000     1.1950 ca         1 QUD      -0.163000
      6 C6          -0.0070     0.0020     2.3940 ca         1 QUD      -0.163000
      7 C7           4.1660     1.0520     3.2070 ca         1 QUD      -0.054000
      8 C8           4.0270    -1.2740     3.8010 ca         1 QUD      -0.097000
      9 C9           5.4260    -1.3590     3.7540 ca         1 QUD      -0.144300
     10 C10          6.1860    -0.2060     3.4270 ca         1 QUD       0.379600
     11 C11          1.3810     0.0010     2.3980 ca         1 QUD       0.116100
     12 C12          3.4150    -0.0830     3.5300 ca         1 QUD       0.190100
     13 C13          8.1080    -1.4580     3.6490 ca         1 QUD       0.227000
     14 C14          8.1140    -3.6540     7.9500 c          1 QUD       0.587100
     15 C15          6.1100    -2.5570     4.0230 ca         1 QUD      -0.152300
     16 C16         10.3210    -2.0220    11.2680 c3         1 QUD      -0.025400
     17 C17          8.5280    -6.5850     0.9460 c3         1 QUD      -0.027400
     18 C18          8.8190    -2.2560    11.4450 c3         1 QUD      -0.022900
     19 C19         10.5880    -1.4530     9.8740 c3         1 QUD      -0.022900
     20 C20          7.6660    -5.3380     0.7410 c3         1 QUD      -0.018400
     21 C21          8.2810    -7.1510     2.3460 c3         1 QUD      -0.018400
     22 C22          8.3290    -3.2480    10.3870 c3         1 QUD      -0.012400
     23 C23         10.0980    -2.4440     8.8160 c3         1 QUD      -0.012400
     24 C24          8.0330    -4.2850     1.7880 c3         1 QUD      -0.028400
     25 C25          8.6490    -6.0980     3.3940 c3         1 QUD      -0.028400
     26 C26          8.5970    -2.6780     8.9920 c3         1 QUD      -0.117700
     27 C27          7.7860    -4.8520     3.1890 c3         1 QUD      -0.057700
     28 C28          7.7780    -4.3110     5.6280 c3         1 QUD       0.039000
     29 C29          8.1540    -3.7990     4.2360 c3         1 QUD      -0.170000
     30 N30          7.4250    -2.5580     3.9600 na         1 QUD       0.468100
     31 N31          7.5210    -0.3070     3.3870 nb         1 QUD      -0.467000
     32 N32          9.4890    -1.5270     3.5990 nv         1 QUD      -0.188900
     33 O34          7.6070    -4.7010     8.2900 o          1 QUD      -0.606100
     34 O35          2.0590     0.0010     3.5750 os         1 QUD      -0.221200
     35 H1          -0.5410    -0.0000    -0.9390 ha         1 QUD       0.117000
     36 H2           1.9230    -0.0010    -0.9390 ha         1 QUD       0.112500
     37 H3          -1.7770     0.0010     1.1930 ha         1 QUD       0.112500
     38 H5           3.1580    -0.0000     1.1940 ha         1 QUD       0.114000
     39 H6          -0.5510     0.0020     3.3310 ha         1 QUD       0.114000
     40 H4           6.0940     1.8880     2.9030 ha         1 QUD       0.146000
     41 H7           3.6580     1.9850     2.9970 ha         1 QUD       0.145000
     42 H8           3.4360    -2.1470     4.0500 ha         1 QUD       0.145000
     43 H15          5.5670    -3.4600     4.2770 h4         1 QUD       0.181000
     44 H321        10.0290    -1.3340     4.4190 hn         1 QUD       0.153200
     45 H322         9.9500    -1.7020     2.7280 hn         1 QUD       0.153200
     46 H26          8.0720    -1.7370     8.8820 hc         1 QUD       0.037700
     47 H33          8.6440    -2.4870     6.3610 hn         1 QUD       0.170500
     48 H162        10.6660    -1.3180    12.0160 hc         1 QUD       0.022700
     49 H181         8.6310    -2.6620    12.4320 hc         1 QUD       0.018450
     50 H182         8.2920    -1.3170    11.3290 hc         1 QUD       0.018450
     51 H191        10.0580    -0.5150     9.7610 hc         1 QUD       0.018450
     52 H192        11.6510    -1.2900     9.7490 hc         1 QUD       0.018450
     53 H171         9.5730    -6.3210     0.8440 hc         1 QUD       0.027200
     54 H172         8.2640    -7.3310     0.2050 hc         1 QUD       0.027200
     55 H201         6.6210    -5.6020     0.8480 hc         1 QUD       0.025950
     56 H202         7.8430    -4.9380    -0.2500 hc         1 QUD       0.025950
     57 H211         7.2350    -7.4110     2.4500 hc         1 QUD       0.025950
     58 H212         8.8940    -8.0320     2.4910 hc         1 QUD       0.025950
     59 H221         8.8600    -4.1860    10.5000 hc         1 QUD       0.021700
     60 H222         7.2660    -3.4110    10.5110 hc         1 QUD       0.021700
     61 H231        10.2860    -2.0390     7.8290 hc         1 QUD       0.021700
     62 H232        10.6250    -3.3840     8.9320 hc         1 QUD       0.021700
     63 H241         7.4200    -3.4040     1.6430 hc         1 QUD       0.019200
     64 H242         9.0800    -4.0250     1.6850 hc         1 QUD       0.019200
     65 H251         9.6950    -5.8340     3.2870 hc         1 QUD       0.019200
     66 H252         8.4730    -6.4990     4.3850 hc         1 QUD       0.019200
     67 H27          6.7410    -5.1180     3.2890 hc         1 QUD       0.044700
     68 H29          9.2200    -3.6080     4.1980 h1         1 QUD       0.097700
     69 H281         6.7010    -4.4110     5.6970 h1         1 QUD       0.054200
     70 H282         8.2410    -5.2760     5.7950 h1         1 QUD       0.054200
     71 N33          8.2470    -3.3620     6.6410 ns         1 QUD      -0.251900
     72 H161        10.8470    -2.9630    11.3800 hc         1 QUD       0.022700
@<TRIPOS>BOND
     1     1     2 ar  
     2     1     3 ar  
     3     1    35 1   
     4     2     5 ar  
     5     2    36 1   
     6     3     6 ar  
     7     3    37 1   
     8     4     7 ar  
     9     4    10 ar  
    10     4    40 1   
    11     5    11 ar  
    12     5    38 1   
    13     6    11 ar  
    14     6    39 1   
    15     7    12 ar  
    16     7    41 1   
    17     8     9 ar  
    18     8    12 ar  
    19     8    42 1   
    20     9    10 ar  
    21     9    15 ar  
    22    10    31 ar  
    23    11    34 1   
    24    12    34 1   
    25    13    30 1   
    26    13    31 ar  
    27    13    32 1   
    28    14    26 1   
    29    14    33 2   
    30    14    71 1   
    31    15    30 2   
    32    15    43 1   
    33    16    18 1   
    34    16    19 1   
    35    16    48 1   
    36    16    72 1   
    37    17    20 1   
    38    17    21 1   
    39    17    53 1   
    40    17    54 1   
    41    18    22 1   
    42    18    49 1   
    43    18    50 1   
    44    19    23 1   
    45    19    51 1   
    46    19    52 1   
    47    20    24 1   
    48    20    55 1   
    49    20    56 1   
    50    21    25 1   
    51    21    57 1   
    52    21    58 1   
    53    22    26 1   
    54    22    59 1   
    55    22    60 1   
    56    23    26 1   
    57    23    61 1   
    58    23    62 1   
    59    24    27 1   
    60    24    63 1   
    61    24    64 1   
    62    25    27 1   
    63    25    65 1   
    64    25    66 1   
    65    26    46 1   
    66    27    29 1   
    67    27    67 1   
    68    28    29 1   
    69    28    69 1   
    70    28    70 1   
    71    28    71 1   
    72    29    30 1   
    73    29    68 1   
    74    32    44 1   
    75    32    45 1   
    76    47    71 1   
@<TRIPOS>SUBSTRUCTURE
     1 QUD         1 TEMP              0 ****  ****    0 ROOT
