@<TRIPOS>MOLECULE
QUE
   32    34     1     0     0
SMALL
bcc


@<TRIPOS>ATOM
      1 C1         -0.0810    0.0640    0.1170 ca        1 QUE     -0.353000
      2 C2          1.3080   -0.0620    0.0110 ca        1 QUE      0.254100
      3 C3          2.1400   -0.0390    1.1580 ca        1 QUE     -0.281600
      4 C4          1.5150    0.1160    2.4110 ca        1 QUE      0.220100
      5 C5          0.1250    0.2450    2.5500 ca        1 QUE     -0.234000
      6 C6         -0.6560    0.2170    1.3890 ca        1 QUE      0.224100
      7 C9          3.5870   -0.1670    1.0810 c         1 QUE      0.583900
      8 C10         4.2670   -0.1260    2.3940 cc        1 QUE     -0.062100
      9 C11         3.5970    0.0320    3.5690 cd        1 QUE      0.133900
     10 C14         4.1540    0.1050    4.9170 ca        1 QUE     -0.051800
     11 C15         5.3650   -0.5330    5.2170 ca        1 QUE     -0.086000
     12 C16         5.9020   -0.4570    6.5000 ca        1 QUE     -0.181000
     13 C17         5.2270    0.2560    7.4940 ca        1 QUE      0.058100
     14 C18         4.0030    0.8970    7.2010 ca        1 QUE      0.100100
     15 C19         3.4680    0.8190    5.9120 ca        1 QUE     -0.100000
     16 O12         2.2080    0.1520    3.6020 os        1 QUE     -0.209200
     17 O13         4.2510   -0.2950    0.0420 o         1 QUE     -0.538100
     18 O23         3.2920    1.6110    8.1360 oh        1 QUE     -0.493100
     19 O24         5.6860    0.3820    8.7880 oh        1 QUE     -0.514100
     20 O27         5.6380   -0.2530    2.4080 oh        1 QUE     -0.491100
     21 O29        -2.0080    0.3470    1.5660 oh        1 QUE     -0.482100
     22 O30         1.9280   -0.2150   -1.1960 oh        1 QUE     -0.451100
     23 H1         -0.7120    0.0450   -0.7810 ha        1 QUE      0.144000
     24 H5         -0.3350    0.3640    3.5400 ha        1 QUE      0.178000
     25 H15         5.9020   -1.0960    4.4360 ha        1 QUE      0.162000
     26 H16         6.8540   -0.9560    6.7300 ha        1 QUE      0.140000
     27 H19         2.5120    1.3180    5.6920 ha        1 QUE      0.166000
     28 HO3         3.7850    1.5830    8.9710 ho        1 QUE      0.437000
     29 HO4         6.5310   -0.0870    8.8500 ho        1 QUE      0.432000
     30 HO7         5.9340   -0.2580    1.4790 ho        1 QUE      0.445000
     31 HO9        -2.4340    0.3120    0.6950 ho        1 QUE      0.428000
     32 HO0         1.2500   -0.2120   -1.8900 ho        1 QUE      0.424000
@<TRIPOS>BOND
     1    1    2 ar
     2    1    6 ar
     3    1   23 1
     4    2    3 ar
     5    2   22 1
     6    3    4 ar
     7    3    7 1
     8    4    5 ar
     9    4   16 1
    10    5    6 ar
    11    5   24 1
    12    6   21 1
    13    7    8 1
    14    7   17 2
    15    8    9 2
    16    8   20 1
    17    9   10 1
    18    9   16 1
    19   10   11 ar
    20   10   15 ar
    21   11   12 ar
    22   11   25 1
    23   12   13 ar
    24   12   26 1
    25   13   14 ar
    26   13   19 1
    27   14   15 ar
    28   14   18 1
    29   15   27 1
    30   18   28 1
    31   19   29 1
    32   20   30 1
    33   21   31 1
    34   22   32 1
@<TRIPOS>SUBSTRUCTURE
     1 QUE         1 TEMP              0 ****  ****    0 ROOT
