@<TRIPOS>MOLECULE
molecule
   18    19     1     0     0
SMALL
bcc


@<TRIPOS>ATOM
      1 N1           0.0000     0.0000     0.0000 nb         1 QUI      -0.605000
      2 C2           1.3220     0.0000     0.0000 ca         1 QUI       0.300500
      3 C3           2.0480     0.0000     1.2020 ca         1 QUI       0.329900
      4 N4           1.4400    -0.0040     2.3640 nb         1 QUI      -0.687000
      5 C5          -0.5960    -0.0120     3.6270 ca         1 QUI      -0.157300
      6 C6          -1.9570    -0.0170     3.6180 ca         1 QUI      -0.153000
      7 C7          -2.6800    -0.0170     2.4290 ca         1 QUI      -0.156000
      8 C8          -2.0610    -0.0130     1.2180 ca         1 QUI      -0.145300
      9 C9          -0.6550    -0.0090     1.1590 ca         1 QUI       0.294300
     10 C10          0.1040    -0.0080     2.4110 ca         1 QUI       0.281300
     11 C            2.0510     0.0050    -1.2890 c          1 QUI       0.778100
     12 O1           3.2640     0.0080    -1.3010 o          1 QUI      -0.810800
     13 O2           1.3670     0.0050    -2.4490 o          1 QUI      -0.810800
     14 H3           3.1310    -0.0000     1.1680 h4         1 QUI       0.049100
     15 H5          -0.1260    -0.0130     4.6030 ha         1 QUI       0.129000
     16 H6          -2.5100    -0.0200     4.5500 ha         1 QUI       0.111000
     17 H7          -3.7620    -0.0200     2.4890 ha         1 QUI       0.113000
     18 H8          -2.7180    -0.0140     0.3560 ha         1 QUI       0.141000
@<TRIPOS>BOND
     1     1     2 ar
     2     1     9 ar
     3     2     3 ar
     4     2    11 1
     5     3     4 ar
     6     3    14 1
     7     4    10 ar
     8     5     6 ar
     9     5    10 ar
    10     5    15 1
    11     6     7 ar
    12     6    16 1
    13     7     8 ar
    14     7    17 1
    15     8     9 ar
    16     8    18 1
    17     9    10 ar
    18    11    12 1
    19    11    13 1
@<TRIPOS>SUBSTRUCTURE
     1 QUI         1 TEMP              0 ****  ****    0 ROOT
