@<TRIPOS>MOLECULE
QUI
   18    19     1     0     0
SMALL
bcc


@<TRIPOS>ATOM
      1 N1         -0.0320   -0.2680   -0.0440 nb        1 QUI     -0.642000
      2 C2          1.2600   -0.0030   -0.0790 ca        1 QUI      0.293500
      3 C3          1.9870    0.3780    1.1310 ca        1 QUI      0.320900
      4 N4          1.4220    0.4810    2.3150 nb        1 QUI     -0.671000
      5 C5         -0.6370    0.2930    3.6160 ca        1 QUI     -0.157300
      6 C6         -1.9830    0.0210    3.6780 ca        1 QUI     -0.158000
      7 C7         -2.6960   -0.3470    2.5170 ca        1 QUI     -0.148000
      8 C8         -2.0610   -0.4420    1.3020 ca        1 QUI     -0.162300
      9 C9         -0.6650   -0.1690    1.1920 ca        1 QUI      0.295300
     10 C10         0.0580    0.2060    2.3760 ca        1 QUI      0.260300
     11 C           2.0960   -0.0710   -1.3810 c         1 QUI      0.828100
     12 O1          2.6550   -1.1680   -1.6250 o         1 QUI     -0.797800
     13 O2          2.1830    0.9910   -2.0430 o         1 QUI     -0.797800
     14 H3          3.0680    0.5900    1.0520 h4        1 QUI      0.033100
     15 H5         -0.0810    0.5800    4.5220 ha        1 QUI      0.132000
     16 H6         -2.5190    0.0880    4.6350 ha        1 QUI      0.114000
     17 H7         -3.7720   -0.5590    2.5970 ha        1 QUI      0.115000
     18 H8         -2.6180   -0.7300    0.3970 ha        1 QUI      0.141000
@<TRIPOS>BOND
     1    1    2 ar  
     2    1    9 ar  
     3    2    3 ar  
     4    2   11 1   
     5    3    4 ar  
     6    3   14 1   
     7    4   10 ar  
     8    5    6 ar  
     9    5   10 ar  
    10    5   15 1   
    11    6    7 ar  
    12    6   16 1   
    13    7    8 ar  
    14    7   17 1   
    15    8    9 ar  
    16    8   18 1   
    17    9   10 ar  
    18   11   12 1   
    19   11   13 1   
@<TRIPOS>SUBSTRUCTURE
     1 QUI         1 TEMP              0 ****  ****    0 ROOT
