@<TRIPOS>MOLECULE
molecule
   34    35     1     0     0
SMALL
bcc


@<TRIPOS>ATOM
      1 C2           0.0000     0.0000     0.0000 ca         1 QUJ       0.168300
      2 C3           1.3790     0.0000     0.0000 ca         1 QUJ      -0.258000
      3 C4           2.0910     0.0000     1.1950 ca         1 QUJ      -0.109000
      4 C5           1.4470     0.0010     2.3960 ca         1 QUJ      -0.162000
      5 C6           0.0470     0.0020     2.4400 ca         1 QUJ      -0.141300
      6 C8          -0.6470     0.0020     3.6730 ca         1 QUJ       0.126100
      7 C9          -2.0280     0.0030     3.6400 ca         1 QUJ      -0.303300
      8 C10         -2.6910     0.0030     2.4060 ca         1 QUJ       0.439800
      9 O           -4.7970     0.0050     3.4220 o          1 QUJ      -0.819800
     10 C           -4.1720     0.0040     2.3810 c          1 QUJ       0.781100
     11 N11         -2.0270     0.0030     1.2650 nb         1 QUJ      -0.672000
     12 C7          -0.6960     0.0070     1.2320 ca         1 QUJ       0.388600
     13 N           -0.7020     0.0000    -1.2030 nv         1 QUJ      -0.902200
     14 OB           0.0240     0.0030     4.8500 os         1 QUJ      -0.337900
     15 CG          -0.7610     0.0040     6.0450 c3         1 QUJ       0.143400
     16 CD           0.1640     0.0030     7.2630 c3         1 QUJ      -0.076700
     17 CE2          0.9590     1.3090     7.3010 c3         1 QUJ      -0.086100
     18 CE1         -0.6730    -0.1210     8.5380 c3         1 QUJ      -0.086100
     19 H1           1.9140    -0.0010    -0.9420 ha         1 QUJ       0.111000
     20 H2           3.1740    -0.0000     1.1700 ha         1 QUJ       0.106000
     21 H3           2.0180     0.0010     3.3170 ha         1 QUJ       0.126000
     22 H4          -2.5920    -0.1180     4.5580 ha         1 QUJ       0.158000
     23 H6          -1.7000    -0.0730    -1.2000 hn         1 QUJ       0.437800
     24 H7          -0.2060     0.0510    -2.0710 hn         1 QUJ       0.437800
     25 H8          -1.3850     0.8890     6.0660 h1         1 QUJ       0.043700
     26 H9          -1.3870    -0.8800     6.0670 h1         1 QUJ       0.043700
     27 H10          0.8480    -0.8340     7.1970 hc         1 QUJ       0.055700
     28 H11          1.4260     1.4200     8.2730 hc         1 QUJ       0.034367
     29 H12          1.7230     1.2890     6.5340 hc         1 QUJ       0.034367
     30 H13          0.2920     2.1440     7.1250 hc         1 QUJ       0.034367
     31 H14         -1.2230    -1.0540     8.5200 hc         1 QUJ       0.034367
     32 H15         -1.3690     0.7070     8.5960 hc         1 QUJ       0.034367
     33 H16         -0.0200    -0.1040     9.4020 hc         1 QUJ       0.034367
     34 OXT         -4.8250     0.0050     1.2040 o          1 QUJ      -0.819800
@<TRIPOS>BOND
     1     3     2 ar
     2     3     4 ar
     3     2     1 ar
     4    18    16 1
     5     4     5 ar
     6     1    13 1
     7     1    12 ar
     8     5    12 ar
     9     5     6 ar
    10    12    11 ar
    11    14     6 1
    12    14    15 1
    13     6     7 ar
    14    11     8 ar
    15     7     8 ar
    16     8    10 1
    17    15    16 1
    18    16    17 1
    19    10     9 1
    20     2    19 1
    21     3    20 1
    22     4    21 1
    23     7    22 1
    24    13    23 1
    25    13    24 1
    26    15    25 1
    27    15    26 1
    28    16    27 1
    29    17    28 1
    30    17    29 1
    31    17    30 1
    32    18    31 1
    33    18    32 1
    34    18    33 1
    35    10    34 1
@<TRIPOS>SUBSTRUCTURE
     1 QUJ         1 TEMP              0 ****  ****    0 ROOT
