@<TRIPOS>MOLECULE
QUK
   34    35     1     0     0
SMALL
bcc


@<TRIPOS>ATOM
      1 O            0.0000     0.0000     0.0000 o          1 QUK      -0.860800
      2 C            1.2140     0.0000     0.0000 c          1 QUK       0.856100
      3 C10          1.9560     0.0000     1.2820 ca         1 QUK       0.396800
      4 N11          3.2760     0.0060     1.2640 nb         1 QUK      -0.512000
      5 C7           3.9890     0.0070     2.3880 ca         1 QUK       0.372600
      6 C2           5.4040     0.0130     2.3500 ca         1 QUK       0.007300
      7 N            6.0730     0.0200     1.1280 nv         1 QUK      -0.534200
      8 C9           1.2390    -0.0010     2.4850 ca         1 QUK      -0.276300
      9 C8           1.9230    -0.0020     3.6870 ca         1 QUK       0.099100
     10 C6           3.3360    -0.0000     3.6460 ca         1 QUK      -0.164300
     11 C5           4.0950    -0.0020     4.8250 ca         1 QUK      -0.098000
     12 C4           5.4570     0.0040     4.7580 ca         1 QUK      -0.112000
     13 C3           6.1140     0.0120     3.5310 ca         1 QUK      -0.133000
     14 OB           1.2590    -0.0030     4.8690 os         1 QUK      -0.309900
     15 CG          -0.1690    -0.0030     4.8110 c3         1 QUK       0.214400
     16 CD          -0.7380    -0.0040     6.2310 c3         1 QUK      -0.046400
     17 CE          -2.2670    -0.0040     6.1680 c3         1 QUK      -0.050200
     18 OXT          1.8870    -0.0040    -1.1670 o          1 QUK      -0.860800
     19 H1           6.3230     0.8890     0.7000 hn         1 QUK       0.275300
     20 H2           6.3310    -0.8440     0.6940 hn         1 QUK       0.275300
     21 H3           0.1630    -0.1210     2.4750 ha         1 QUK       0.132000
     22 H4           3.6000    -0.0070     5.7890 ha         1 QUK       0.092000
     23 H5           6.0360     0.0040     5.6740 ha         1 QUK       0.091000
     24 H6           7.1970     0.0160     3.5040 ha         1 QUK       0.103000
     25 H7          -0.5090    -0.8880     4.2850 h1         1 QUK       0.021700
     26 H8          -0.5100     0.8820     4.2860 h1         1 QUK       0.021700
     27 H9          -0.3980     0.8800     6.7560 hc         1 QUK       0.036700
     28 H10         -0.3970    -0.8890     6.7550 hc         1 QUK       0.036700
     29 H11         -2.6070     0.8800     5.6430 hx         1 QUK       0.089700
     30 H12         -2.6060    -0.8890     5.6420 hx         1 QUK       0.089700
     31 N1          -2.8130    -0.0050     7.5320 nz         1 QUK       0.086400
     32 H13         -2.4990     0.8110     8.0170 hn         1 QUK       0.220467
     33 H15         -2.4990    -0.8230     8.0160 hn         1 QUK       0.220467
     34 H131        -3.8130    -0.0050     7.4910 hn         1 QUK       0.220467
@<TRIPOS>BOND
     1     1     2 1   
     2     2     3 1   
     3     2    18 1   
     4     3     4 ar  
     5     3     8 ar  
     6     4     5 ar  
     7     5     6 ar  
     8     5    10 ar  
     9     6     7 1   
    10     6    13 ar  
    11     7    19 1   
    12     7    20 1   
    13     8     9 ar  
    14     8    21 1   
    15     9    10 ar  
    16     9    14 1   
    17    10    11 ar  
    18    11    12 ar  
    19    11    22 1   
    20    12    13 ar  
    21    12    23 1   
    22    13    24 1   
    23    14    15 1   
    24    15    16 1   
    25    15    25 1   
    26    15    26 1   
    27    16    17 1   
    28    16    27 1   
    29    16    28 1   
    30    17    29 1   
    31    17    30 1   
    32    17    31 1   
    33    31    32 1   
    34    31    33 1   
    35    31    34 1   
@<TRIPOS>SUBSTRUCTURE
     1 QUK         1 TEMP              0 ****  ****    0 ROOT
