@<TRIPOS>MOLECULE
molecule
   49    52     1     0     0
SMALL
bcc


@<TRIPOS>ATOM
      1 N1           0.0000     0.0000     0.0000 nb         1 QUL      -0.659000
      2 C2          -2.1100     0.0010    -1.1120 ca         1 QUL      -0.154300
      3 C3          -2.8050     0.0010    -2.2810 ca         1 QUL      -0.131000
      4 C4          -2.1470     0.0010    -3.5090 ca         1 QUL      -0.120000
      5 C5          -0.7870     0.0010    -3.5720 ca         1 QUL      -0.121000
      6 C6           1.3760    -0.0020    -2.4160 ca         1 QUL       0.133600
      7 N6           2.0660    -0.0030    -3.6210 nu         1 QUL      -0.821600
      8 N7           3.4100    -0.0010    -0.8940 na         1 QUL      -0.195300
      9 C8           4.7270    -0.0000     1.2740 ca         1 QUL      -0.172000
     10 C9           4.6100     0.0000     2.6470 ca         1 QUL      -0.082000
     11 C1'          2.4660     1.3600    -4.0000 c3         1 QUL       0.209800
     12 C10          3.3600     0.0000     3.2490 ca         1 QUL      -0.175000
     13 C11          2.2190     0.0010     2.4780 ca         1 QUL      -0.046000
     14 C1A          1.3240     0.0000     0.0000 cp         1 QUL       0.464800
     15 C11A         2.3220     0.0000     1.0880 cp         1 QUL      -0.207500
     16 C2'          3.1000     1.3360    -5.3930 c3         1 QUL       0.147800
     17 C2A         -0.7020     0.0010    -1.1360 ca         1 QUL       0.412600
     18 N3'          3.5000     2.6980    -5.7710 n3         1 QUL      -0.728600
     19 C4'          4.5800     3.1900    -4.9040 c3         1 QUL       0.156300
     20 C4X          3.8930     2.7570    -7.1850 c3         1 QUL       0.156300
     21 C5'          4.7040     4.7070    -5.0550 c3         1 QUL      -0.093600
     22 C5A         -0.0360    -0.0000    -2.3870 ca         1 QUL      -0.155300
     23 C5X          2.6430     2.6940    -8.0640 c3         1 QUL      -0.093600
     24 C6A          2.0560    -0.0000    -1.2020 ca         1 QUL      -0.106500
     25 C8A          3.5840    -0.0010     0.4780 ca         1 QUL       0.024800
     26 H2          -2.6370     0.0000    -0.1650 ha         1 QUL       0.148000
     27 H3          -3.8880     0.0010    -2.2570 ha         1 QUL       0.132000
     28 H4          -2.7250     0.0010    -4.4250 ha         1 QUL       0.129000
     29 H5          -0.2870     0.0010    -4.5340 ha         1 QUL       0.128000
     30 HN6          1.8360    -0.6720    -4.3290 hn         1 QUL       0.425800
     31 HN7          4.1510    -0.0030    -1.5660 hn         1 QUL       0.306700
     32 H8           5.7080    -0.0000     0.8140 ha         1 QUL       0.130000
     33 H9           5.5020    -0.0000     3.2620 ha         1 QUL       0.132000
     34 H1'          3.1850     1.7370    -3.2830 h1         1 QUL       0.046200
     35 H2'          3.9720     0.6930    -5.3820 h1         1 QUL       0.037700
     36 H4'          5.5140     2.7210    -5.1890 h1         1 QUL       0.034450
     37 H5'          5.4080     4.9360    -5.8450 hc         1 QUL       0.039867
     38 H1'A         1.5950     2.0030    -4.0100 h1         1 QUL       0.046200
     39 H2'A         2.3810     0.9580    -6.1100 h1         1 QUL       0.037700
     40 H4'A         4.3540     2.9470    -3.8730 h1         1 QUL       0.034450
     41 H5'A         5.0550     5.1350    -4.1240 hc         1 QUL       0.039867
     42 H5'B         3.7360     5.1260    -5.3020 hc         1 QUL       0.039867
     43 H10          3.2810     0.0010     4.3300 ha         1 QUL       0.134000
     44 H11          1.2440     0.0010     2.9500 ha         1 QUL       0.145000
     45 H4X          4.4210     3.6840    -7.3750 h1         1 QUL       0.034450
     46 H5X          2.4240     1.6610    -8.3080 hc         1 QUL       0.039867
     47 H4XA         4.5390     1.9190    -7.4160 h1         1 QUL       0.034450
     48 H5XA         1.8040     3.1250    -7.5310 hc         1 QUL       0.039867
     49 H5XB         2.8150     3.2510    -8.9770 hc         1 QUL       0.039867
@<TRIPOS>BOND
     1     1    14 ar
     2     1    17 ar
     3     2     3 ar
     4     2    17 ar
     5     2    26 1
     6     3     4 ar
     7     3    27 1
     8     4     5 ar
     9     4    28 1
    10     5    22 ar
    11     5    29 1
    12     6     7 1
    13     6    22 ar
    14     6    24 ar
    15     7    11 1
    16     7    30 1
    17     8    24 1
    18     8    25 1
    19     8    31 1
    20     9    10 ar
    21     9    25 ar
    22     9    32 1
    23    10    12 ar
    24    10    33 1
    25    11    16 1
    26    11    34 1
    27    11    38 1
    28    12    13 ar
    29    12    43 1
    30    13    15 ar
    31    13    44 1
    32    14    15 1
    33    14    24 ar
    34    15    25 ar
    35    16    18 1
    36    16    35 1
    37    16    39 1
    38    17    22 ar
    39    18    19 1
    40    18    20 1
    41    19    21 1
    42    19    36 1
    43    19    40 1
    44    20    23 1
    45    20    45 1
    46    20    47 1
    47    21    37 1
    48    21    41 1
    49    21    42 1
    50    23    46 1
    51    23    48 1
    52    23    49 1
@<TRIPOS>SUBSTRUCTURE
     1 QUL         1 TEMP              0 ****  ****    0 ROOT
