@<TRIPOS>MOLECULE
QUM
   59    61     1     0     0
SMALL
bcc


@<TRIPOS>ATOM
      1 C2          0.4060    0.6800   -0.0160 ca        1 QUM      0.010100
      2 C3          1.6530    1.3030    0.1500 ca        1 QUM     -0.102000
      3 C4          2.1820    1.4320    1.4220 ca        1 QUM     -0.180000
      4 C11         1.4630    0.9630    2.5540 ca        1 QUM      0.190600
      5 C12         0.1800    0.3720    2.3790 ca        1 QUM     -0.225900
      6 C1         -0.2980    0.1790    1.0790 ca        1 QUM     -0.099000
      7 N10         1.9990    1.1130    3.8280 na        1 QUM     -0.606000
      8 C14         1.5180    0.3000    4.8650 ca        1 QUM      0.165600
      9 C13         0.2370   -0.2970    4.7630 ca        1 QUM     -0.184900
     10 C9         -0.6080   -0.0110    3.5750 cc        1 QUM      0.575500
     11 C5          2.3010    0.0940    6.0220 ca        1 QUM     -0.181000
     12 C6          1.8110   -0.7130    7.0460 ca        1 QUM      0.067400
     13 C7          0.5590   -1.3310    6.9380 ca        1 QUM     -0.155000
     14 C8         -0.2160   -1.1180    5.8040 ca        1 QUM     -0.042000
     15 N18        -1.8880   -0.0700    3.7400 n2        1 QUM     -0.627900
     16 C19        -2.9250    0.1230    2.7630 c3        1 QUM      0.154500
     17 C20        -4.2990   -0.0610    3.4260 c3        1 QUM     -0.086100
     18 C21        -2.9280    1.4890    2.0420 c3        1 QUM     -0.122400
     19 C22        -3.7280    1.4230    0.7560 c3        1 QUM     -0.109400
     20 C23        -3.1170    2.2390   -0.3730 c3        1 QUM      0.096800
     21 N24        -2.9760    3.7030   -0.0630 n4        1 QUM     -0.685400
     22 C27        -4.3040    4.3960   -0.1290 c3        1 QUM      0.095300
     23 C25        -1.9950    4.3530   -0.9940 c3        1 QUM      0.095300
     24 C28        -4.3460    5.6950    0.6700 c3        1 QUM     -0.025000
     25 C26        -0.5420    4.1050   -0.6080 c3        1 QUM     -0.025000
     26 CL1         2.7520   -0.9570    8.4340 cl        1 QUM     -0.060400
     27 O15        -0.2090    0.6460   -1.2630 os        1 QUM     -0.386900
     28 C17         0.3960   -0.2710   -2.1790 c3        1 QUM      0.117700
     29 CL2         0.4860    5.0130   -1.6770 cl        1 QUM     -0.090900
     30 CL3        -5.9410    6.3730    0.5600 cl        1 QUM     -0.090900
     31 H3          2.2070    1.6690   -0.7280 ha        1 QUM      0.155000
     32 H4          3.1730    1.8950    1.5520 ha        1 QUM      0.153000
     33 H1         -1.2380   -0.3640    0.8970 ha        1 QUM      0.147000
     34 H10         2.9440    1.4250    3.8970 hn        1 QUM      0.446800
     35 H5          3.2930    0.5640    6.1180 ha        1 QUM      0.156000
     36 H7          0.1880   -1.9790    7.7470 ha        1 QUM      0.162000
     37 H8         -1.2050   -1.6010    5.7320 ha        1 QUM      0.163000
     38 H19        -2.8360   -0.6940    1.9790 h1        1 QUM      0.045700
     39 H201       -4.3830   -1.0790    3.8760 hc        1 QUM      0.047700
     40 H202       -4.4640    0.6940    4.2300 hc        1 QUM      0.047700
     41 H203       -5.0900    0.0550    2.6470 hc        1 QUM      0.047700
     42 H211       -1.8730    1.8050    1.8280 hc        1 QUM      0.052200
     43 H212       -3.3710    2.2540    2.7330 hc        1 QUM      0.052200
     44 H221       -4.7900    1.7280    0.9500 hc        1 QUM      0.083200
     45 H222       -3.7660    0.3640    0.3720 hc        1 QUM      0.083200
     46 H231       -2.0810    1.8350   -0.6010 hx        1 QUM      0.116700
     47 H232       -3.7500    2.1480   -1.3010 hx        1 QUM      0.116700
     48 H271       -4.5400    4.5960   -1.2140 hx        1 QUM      0.114200
     49 H272       -5.0850    3.6870    0.2760 hx        1 QUM      0.114200
     50 H251       -2.1980    5.4640   -0.9910 hx        1 QUM      0.114200
     51 H252       -2.1910    3.9610   -2.0340 hx        1 QUM      0.114200
     52 H281       -4.1310    5.5180    1.7530 h1        1 QUM      0.095450
     53 H282       -3.6330    6.4570    0.2690 h1        1 QUM      0.095450
     54 H261       -0.3270    4.4500    0.4340 h1        1 QUM      0.095450
     55 H262       -0.2580    3.0230   -0.7100 h1        1 QUM      0.095450
     56 H171        1.4700   -0.0080   -2.3380 h1        1 QUM      0.050700
     57 H172       -0.1920   -0.1360   -3.1210 h1        1 QUM      0.050700
     58 H173        0.3020   -1.3150   -1.7950 h1        1 QUM      0.050700
     59 H241       -2.6160    3.7840    0.8990 hn        1 QUM      0.448800
@<TRIPOS>BOND
     1    1    2 ar  
     2    1    6 ar  
     3    1   27 1   
     4    2    3 ar  
     5    2   31 1   
     6    3    4 ar  
     7    3   32 1   
     8    4    5 ar  
     9    4    7 1   
    10    5    6 ar  
    11    5   10 1   
    12    6   33 1   
    13    7    8 1   
    14    7   34 1   
    15    8    9 ar  
    16    8   11 ar  
    17    9   10 1   
    18    9   14 ar  
    19   10   15 2   
    20   11   12 ar  
    21   11   35 1   
    22   12   13 ar  
    23   12   26 1   
    24   13   14 ar  
    25   13   36 1   
    26   14   37 1   
    27   15   16 1   
    28   16   17 1   
    29   16   18 1   
    30   16   38 1   
    31   17   39 1   
    32   17   40 1   
    33   17   41 1   
    34   18   19 1   
    35   18   42 1   
    36   18   43 1   
    37   19   20 1   
    38   19   44 1   
    39   19   45 1   
    40   20   21 1   
    41   20   46 1   
    42   20   47 1   
    43   21   22 1   
    44   21   23 1   
    45   21   59 1   
    46   22   24 1   
    47   22   48 1   
    48   22   49 1   
    49   23   25 1   
    50   23   50 1   
    51   23   51 1   
    52   24   30 1   
    53   24   52 1   
    54   24   53 1   
    55   25   29 1   
    56   25   54 1   
    57   25   55 1   
    58   27   28 1   
    59   28   56 1   
    60   28   57 1   
    61   28   58 1   
@<TRIPOS>SUBSTRUCTURE
     1 QUM         1 TEMP              0 ****  ****    0 ROOT
