@<TRIPOS>MOLECULE
QUN
   58    60     1     0     0
SMALL
bcc


@<TRIPOS>ATOM
      1 C1           0.0000     0.0000     0.0000 ca         1 QUN       0.128100
      2 C2           1.3990     0.0000     0.0000 ca         1 QUN      -0.187000
      3 C3           2.0990     0.0000     1.1640 ca         1 QUN      -0.109300
      4 C4           1.4150     0.0010     2.3980 ca         1 QUN       0.369600
      5 C5          -0.0040    -0.0060     2.3950 ca         1 QUN      -0.110300
      6 C6          -0.6960    -0.0000     1.1730 ca         1 QUN      -0.156000
      7 N1           2.1060     0.0010     3.5390 nb         1 QUN      -0.564000
      8 C7           1.5020     0.0020     4.7240 ca         1 QUN       0.394600
      9 C8           0.0400     0.0000     4.8050 ca         1 QUN      -0.186300
     10 C9          -0.7090    -0.0000     3.6150 ca         1 QUN       0.069600
     11 C10          2.2410     0.0030     5.9230 ca         1 QUN      -0.141300
     12 C11          1.5880     0.0040     7.1150 ca         1 QUN      -0.026600
     13 C12          0.1950     0.0020     7.1880 ca         1 QUN      -0.100000
     14 C13         -0.5750     0.0010     6.0680 ca         1 QUN      -0.087000
     15 Cl           2.5110     0.0060     8.5850 cl         1 QUN      -0.028400
     16 O           -0.6720     0.0000    -1.1820 os         1 QUN      -0.277900
     17 C14          0.3130     0.0000    -2.2170 c3         1 QUN       0.214700
     18 N2          -2.0890    -0.0010     3.6400 nu         1 QUN      -0.444600
     19 C15         -2.5150     1.3880     3.4350 c3         1 QUN       0.118500
     20 C16         -2.3660     2.1670     4.7440 c3         1 QUN      -0.045100
     21 C17         -3.9790     1.4120     2.9930 c3         1 QUN      -0.029400
     22 C18         -4.1280     0.6330     1.6840 c3         1 QUN      -0.046400
     23 C19         -5.5930     0.6570     1.2400 c3         1 QUN       0.133800
     24 N3          -5.7480    -0.1450     0.0210 n3         1 QUN      -0.515600
     25 C20         -5.7150    -1.5540     0.4350 c3         1 QUN       0.125800
     26 C21         -7.1030     0.1140    -0.4850 c3         1 QUN       0.125800
     27 C22         -5.8720    -2.4520    -0.7940 c3         1 QUN      -0.001600
     28 C23         -7.1050     1.4110    -1.2950 c3         1 QUN      -0.001600
     29 H21          1.9330     0.0000    -0.9430 ha         1 QUN       0.133000
     30 H31          3.1820    -0.0000     1.1450 ha         1 QUN       0.117000
     31 H61         -1.7790    -0.0010     1.1620 ha         1 QUN       0.148000
     32 H101         3.3240     0.0050     5.8950 ha         1 QUN       0.130000
     33 H121        -0.2840     0.0030     8.1600 ha         1 QUN       0.113000
     34 H131        -1.6560    -0.0000     6.1480 ha         1 QUN       0.113000
     35 H141         0.9320     0.8850    -2.1270 h1         1 QUN       0.002700
     36 H142         0.9320    -0.8840    -2.1270 h1         1 QUN       0.002700
     37 H143        -0.1780     0.0010    -3.1830 h1         1 QUN       0.002700
     38 HN21        -2.5770    -0.5840     4.2920 hn         1 QUN       0.289800
     39 H151        -1.8990     1.8460     2.6710 h1         1 QUN       0.055700
     40 H161        -2.7180     1.5580     5.5680 hc         1 QUN       0.014367
     41 H162        -1.3230     2.4170     4.8990 hc         1 QUN       0.014367
     42 H163        -2.9510     3.0770     4.6920 hc         1 QUN       0.014367
     43 H171        -4.5950     0.9550     3.7580 hc         1 QUN       0.017700
     44 H172        -4.2940     2.4380     2.8400 hc         1 QUN       0.017700
     45 H181        -3.5120     1.0900     0.9190 hc         1 QUN       0.035200
     46 H182        -3.8140    -0.3930     1.8360 hc         1 QUN       0.035200
     47 H191        -6.2150     0.2430     2.0260 h1         1 QUN       0.012700
     48 H192        -5.8940     1.6780     1.0420 h1         1 QUN       0.012700
     49 H201        -6.5250    -1.7460     1.1290 h1         1 QUN       0.013950
     50 H202        -4.7680    -1.7660     0.9180 h1         1 QUN       0.013950
     51 H211        -7.7880     0.2080     0.3480 h1         1 QUN       0.013950
     52 H212        -7.4150    -0.7070    -1.1190 h1         1 QUN       0.013950
     53 H221        -5.3050    -3.3630    -0.6510 hc         1 QUN       0.007200
     54 H222        -5.5050    -1.9310    -1.6710 hc         1 QUN       0.007200
     55 H223        -6.9190    -2.6960    -0.9320 hc         1 QUN       0.007200
     56 H231        -6.1230     1.5730    -1.7220 hc         1 QUN       0.007200
     57 H232        -7.3590     2.2410    -0.6470 hc         1 QUN       0.007200
     58 H233        -7.8370     1.3380    -2.0910 hc         1 QUN       0.007200
@<TRIPOS>BOND
     1     1     2 ar  
     2     1     6 ar  
     3     1    16 1   
     4     2     3 ar  
     5     2    29 1   
     6     3     4 ar  
     7     3    30 1   
     8     4     5 ar  
     9     4     7 ar  
    10     5     6 ar  
    11     5    10 ar  
    12     6    31 1   
    13     7     8 ar  
    14     8     9 ar  
    15     8    11 ar  
    16     9    10 ar  
    17     9    14 ar  
    18    10    18 1   
    19    11    12 ar  
    20    11    32 1   
    21    12    13 ar  
    22    12    15 1   
    23    13    14 ar  
    24    13    33 1   
    25    14    34 1   
    26    16    17 1   
    27    17    35 1   
    28    17    36 1   
    29    17    37 1   
    30    18    19 1   
    31    18    38 1   
    32    19    20 1   
    33    19    21 1   
    34    19    39 1   
    35    20    40 1   
    36    20    41 1   
    37    20    42 1   
    38    21    22 1   
    39    21    43 1   
    40    21    44 1   
    41    22    23 1   
    42    22    45 1   
    43    22    46 1   
    44    23    24 1   
    45    23    47 1   
    46    23    48 1   
    47    24    25 1   
    48    24    26 1   
    49    25    27 1   
    50    25    49 1   
    51    25    50 1   
    52    26    28 1   
    53    26    51 1   
    54    26    52 1   
    55    27    53 1   
    56    27    54 1   
    57    27    55 1   
    58    28    56 1   
    59    28    57 1   
    60    28    58 1   
@<TRIPOS>SUBSTRUCTURE
     1 QUN         1 TEMP              0 ****  ****    0 ROOT
