@<TRIPOS>MOLECULE
molecule
   40    43     1     0     0
SMALL
bcc


@<TRIPOS>ATOM
      1 Cl           0.0000     0.0000     0.0000 cl         1 QUP      -0.060400
      2 C19          1.7370     0.0000     0.0000 ca         1 QUP       0.030400
      3 C18          2.4280     0.0000     1.1970 ca         1 QUP      -0.099000
      4 C21          2.4280    -0.0050    -1.1990 ca         1 QUP      -0.082000
      5 C22          3.8100    -0.0060    -1.2030 ca         1 QUP      -0.105000
      6 C23          4.5060    -0.0010    -0.0100 ca         1 QUP      -0.054300
      7 C24          6.0130    -0.0020    -0.0150 c3         1 QUP      -0.057800
      8 C17          3.8160    -0.0010     1.1960 ca         1 QUP      -0.065200
      9 N16          4.5190    -0.0000     2.4070 na         1 QUP       0.099800
     10 C12          5.2750     1.0460     2.8930 cc         1 QUP      -0.265900
     11 C13          5.4780     2.3400     2.2330 c          1 QUP       0.526700
     12 N15          6.2750     3.2680     2.7980 nz         1 QUP      -0.670400
     13 O14          4.9270     2.5750     1.1740 o          1 QUP      -0.430100
     14 C11          5.8010     0.6690     4.0950 cd         1 QUP      -0.112000
     15 C25          4.5610    -1.0210     3.2860 cc         1 QUP       0.001700
     16 C1           5.3540    -0.6450     4.3510 cd         1 QUP      -0.219500
     17 C2           5.6730    -1.4630     5.5410 cd         1 QUP       0.615800
     18 N10          4.9050    -2.4910     5.8730 nc         1 QUP      -0.768000
     19 C9           5.1690    -3.2430     6.9380 cc         1 QUP       0.664900
     20 N8           6.1940    -3.0180     7.7140 nd         1 QUP      -0.514800
     21 N7           7.0630    -1.9520     7.4420 na         1 QUP       0.237200
     22 C3           6.8050    -1.1650     6.3350 cd         1 QUP      -0.266600
     23 C6           8.1710    -1.4890     8.0480 cd         1 QUP      -0.089100
     24 C5           8.6370    -0.4110     7.3620 cc         1 QUP      -0.183000
     25 C4           7.7900    -0.1980     6.2720 cc         1 QUP      -0.174000
     26 H18          1.8870     0.0370     2.1350 ha         1 QUP       0.161000
     27 H21          1.8840    -0.0090    -2.1360 ha         1 QUP       0.166000
     28 H22          4.3480    -0.0090    -2.1430 ha         1 QUP       0.159000
     29 H241         6.3750     1.0130    -0.1330 hc         1 QUP       0.051367
     30 H242         6.3770    -0.4090     0.9200 hc         1 QUP       0.051367
     31 H243         6.3710    -0.6100    -0.8370 hc         1 QUP       0.051367
     32 H25          4.0610    -1.9750     3.1740 h4         1 QUP       0.225000
     33 H11          6.4430     1.2660     4.7310 ha         1 QUP       0.158000
     34 H151         7.2020     2.9010     2.8880 hn         1 QUP       0.478467
     35 H152         5.9210     3.5040     3.7040 hn         1 QUP       0.478467
     36 H9           4.5120    -4.0730     7.1680 h5         1 QUP       0.091100
     37 H6           8.6160    -1.9030     8.9450 h4         1 QUP       0.196000
     38 H4           7.8820     0.5820     5.5260 ha         1 QUP       0.127000
     39 H5           9.5400     0.1440     7.5850 ha         1 QUP       0.168000
     40 H153         6.2880     4.0900     2.2270 hn         1 QUP       0.478467
@<TRIPOS>BOND
     1     1     2 1
     2     2     3 ar
     3     2     4 ar
     4     3     8 ar
     5     4     5 ar
     6     5     6 ar
     7     6     7 1
     8     6     8 ar
     9     8     9 1
    10     9    10 1
    11     9    15 1
    12    10    11 1
    13    10    14 2
    14    11    12 1
    15    11    13 2
    16    14    16 1
    17    15    16 2
    18    16    17 1
    19    17    18 2
    20    17    22 1
    21    18    19 1
    22    19    20 2
    23    20    21 1
    24    21    22 1
    25    21    23 1
    26    22    25 2
    27    23    24 2
    28    24    25 1
    29     3    26 1
    30     4    27 1
    31     5    28 1
    32     7    29 1
    33     7    30 1
    34     7    31 1
    35    15    32 1
    36    14    33 1
    37    12    34 1
    38    12    35 1
    39    19    36 1
    40    23    37 1
    41    25    38 1
    42    24    39 1
    43    40    12 1
@<TRIPOS>SUBSTRUCTURE
     1 QUP         1 TEMP              0 ****  ****    0 ROOT
