@<TRIPOS>MOLECULE
QUP
   40    43     1     0     0
SMALL
bcc


@<TRIPOS>ATOM
      1 Cl           0.0000     0.0000     0.0000 cl         1 QUP       0.034600
      2 C19          1.7370     0.0000     0.0000 ca         1 QUP      -0.049600
      3 C18          2.4280     0.0000     1.1970 ca         1 QUP      -0.053000
      4 C21          2.4280    -0.0050    -1.1990 ca         1 QUP      -0.039000
      5 C22          3.8100    -0.0060    -1.2030 ca         1 QUP      -0.077000
      6 C23          4.5060    -0.0010    -0.0100 ca         1 QUP      -0.043300
      7 C24          6.0130    -0.0020    -0.0150 c3         1 QUP       0.046200
      8 C17          3.8160    -0.0010     1.1960 ca         1 QUP      -0.272200
      9 N16          4.5190    -0.0000     2.4070 na         1 QUP       0.713800
     10 C12          5.2750     1.0460     2.8930 cc         1 QUP      -0.490900
     11 C13          5.4780     2.3400     2.2330 c          1 QUP       0.391700
     12 N15          6.2750     3.2680     2.7980 nz         1 QUP       0.214600
     13 O14          4.9270     2.5750     1.1740 o          1 QUP      -0.460100
     14 C11          5.8010     0.6690     4.0950 cd         1 QUP      -0.109000
     15 C25          4.5610    -1.0210     3.2860 cc         1 QUP      -0.214300
     16 C1           5.3540    -0.6450     4.3510 cd         1 QUP      -0.201500
     17 C2           5.6730    -1.4630     5.5410 cd         1 QUP       0.605800
     18 N10          4.9050    -2.4910     5.8730 nc         1 QUP      -0.685000
     19 C9           5.1690    -3.2430     6.9380 cc         1 QUP       0.699900
     20 N8           6.1940    -3.0180     7.7140 nd         1 QUP      -0.664800
     21 N7           7.0630    -1.9520     7.4420 na         1 QUP       0.758200
     22 C3           6.8050    -1.1650     6.3350 cd         1 QUP      -0.449600
     23 C6           8.1710    -1.4890     8.0480 cd         1 QUP      -0.282100
     24 C5           8.6370    -0.4110     7.3620 cc         1 QUP      -0.134000
     25 C4           7.7900    -0.1980     6.2720 cc         1 QUP      -0.156000
     26 H18          1.8870     0.0370     2.1350 ha         1 QUP       0.127000
     27 H21          1.8840    -0.0090    -2.1360 ha         1 QUP       0.130000
     28 H22          4.3480    -0.0090    -2.1430 ha         1 QUP       0.126000
     29 H241         6.3750     1.0130    -0.1330 hc         1 QUP       0.016033
     30 H242         6.3770    -0.4090     0.9200 hc         1 QUP       0.016033
     31 H243         6.3710    -0.6100    -0.8370 hc         1 QUP       0.016033
     32 H25          4.0610    -1.9750     3.1740 h4         1 QUP       0.186000
     33 H11          6.4430     1.2660     4.7310 ha         1 QUP       0.135000
     34 H151         7.2020     2.9010     2.8880 hn         1 QUP       0.244800
     35 H152         5.9210     3.5040     3.7040 hn         1 QUP       0.244800
     36 H9           4.5120    -4.0730     7.1680 h5         1 QUP       0.020100
     37 H6           8.6160    -1.9030     8.9450 h4         1 QUP       0.167000
     38 H4           7.8820     0.5820     5.5260 ha         1 QUP       0.109000
     39 H5           9.5400     0.1440     7.5850 ha         1 QUP       0.136000
     40 H153         6.2880     4.0900     2.2270 hn         1 QUP       0.244800
@<TRIPOS>BOND
     1     1     2 1   
     2     2     3 ar  
     3     2     4 ar  
     4     3     8 ar  
     5     3    26 1   
     6     4     5 ar  
     7     4    27 1   
     8     5     6 ar  
     9     5    28 1   
    10     6     7 1   
    11     6     8 ar  
    12     7    29 1   
    13     7    30 1   
    14     7    31 1   
    15     8     9 1   
    16     9    10 1   
    17     9    15 1   
    18    10    11 1   
    19    10    14 2   
    20    11    12 1   
    21    11    13 2   
    22    12    34 1   
    23    12    35 1   
    24    12    40 1   
    25    14    16 1   
    26    14    33 1   
    27    15    16 2   
    28    15    32 1   
    29    16    17 1   
    30    17    18 2   
    31    17    22 1   
    32    18    19 1   
    33    19    20 2   
    34    19    36 1   
    35    20    21 1   
    36    21    22 1   
    37    21    23 1   
    38    22    25 2   
    39    23    24 2   
    40    23    37 1   
    41    24    25 1   
    42    24    39 1   
    43    25    38 1   
@<TRIPOS>SUBSTRUCTURE
     1 QUP         1 TEMP              0 ****  ****    0 ROOT
