@<TRIPOS>MOLECULE
QUS
   20    17     1     0     0
SMALL
bcc


@<TRIPOS>ATOM
      1 C01        -1.2160    0.8270   -0.7480 c1        1 QUS      0.477000
      2 C02         0.9730    1.0560   -0.4440 c1        1 QUS     -0.212000
      3 C03         3.1940   -0.8240    2.7570 c1        1 QUS     -0.013000
      4 C04         4.7230    0.5310    1.2180 c2        1 QUS      0.346000
      5 C05         6.5300    0.2540    2.5860 c2        1 QUS      0.382000
      6 NP3         1.6450    1.1870   -1.5390 n3        1 QUS     -0.195000
      7 N14         4.3220   -0.2770    2.3860 n         1 QUS     -0.091000
      8 N15         6.0880    0.8340    1.3850 n         1 QUS     -0.377000
      9 O16        -1.2390    1.0320   -1.9330 o         1 QUS     -0.292500
     10 O17        -1.5420    0.5770    0.3770 o         1 QUS     -0.292500
     11 O20         5.4310   -0.4230    3.1800 os        1 QUS     -0.095000
     12 H02         0.2120   -1.0940    0.5870 ha        1 QUS      0.002000
     13 H031        2.3440   -0.6590    2.0590 ha        1 QUS      0.101000
     14 H032        0.8290   -1.3760    0.6000 ha        1 QUS      0.002000
     15 HP31        1.5080    1.0600    0.5210 ha        1 QUS      0.088000
     16 HP32        2.6380    1.2900   -1.6080 hn        1 QUS      0.212000
     17 H15         6.6430    1.3720    0.7680 hn        1 QUS      0.298000
     18 O19         7.6040    0.2280    3.1650 o         1 QUS     -0.241000
     19 HP33        1.1470    1.1880   -2.4080 hn        1 QUS      0.212000
     20 O18         3.9860    0.8640    0.2850 o         1 QUS     -0.309000
@<TRIPOS>BOND
     1    1    9 1
     2    1   10 1
     3    2    6 1
     4    2   15 1
     5    3    7 1
     6    3   13 1
     7    4    7 1
     8    4    8 1
     9    4   20 1
    10    5    8 1
    11    5   11 1
    12    5   18 1
    13    6   16 1
    14    6   19 1
    15    7   11 1
    16    8   17 1
    17   12   14 1
@<TRIPOS>SUBSTRUCTURE
     1 QUS         1 TEMP              0 ****  ****    0 ROOT
