@<TRIPOS>MOLECULE
molecule
   54    56     1     0     0
SMALL
bcc


@<TRIPOS>ATOM
      1 NAA          0.0000     0.0000     0.0000 nz         1 QUW      -0.663400
      2 OAB         -1.6280    -0.1230     1.9320 o          1 QUW      -0.678100
      3 OAC          1.4280    -0.0010     4.4610 o          1 QUW      -0.578500
      4 OAD          6.0820    -4.2270    -6.7940 oh         1 QUW      -0.608800
      5 OAE          4.0000    -0.0010     3.9140 oh         1 QUW      -0.306100
      6 CAH         -3.0360     1.5740     7.8920 ca         1 QUW      -0.180000
      7 CAI         -2.9760     1.3960     6.5220 ca         1 QUW      -0.056000
      8 CAJ          5.0590     0.0000     0.0000 ca         1 QUW       0.520200
      9 CAK         -2.1290    -0.6210     8.2180 ca         1 QUW      -0.207000
     10 CAL          2.7940     0.0010    -0.7650 ca         1 QUW      -0.073000
     11 CAM          5.9310    -2.8800    -6.3420 c3         1 QUW       0.143400
     12 CAO          5.2800    -1.4380    -4.4080 c3         1 QUW      -0.082400
     13 CAP          4.7920    -1.4400    -2.9580 c3         1 QUW      -0.077400
     14 CAR         -2.4280     0.0190     4.5060 c3         1 QUW       0.160300
     15 NAS          4.6670     0.0000     1.2570 nb         1 QUW      -0.681000
     16 NAT         -1.0380     0.1370     4.0590 ns         1 QUW      -0.513900
     17 CAV         -2.6120     0.5650     8.7400 ca         1 QUW       0.187900
     18 CAW          4.1480     0.0010    -1.0450 ca         1 QUW      -0.192600
     19 CAX          0.9830     0.0000     0.9540 cc         1 QUW       0.068800
     20 CAY         -2.0690    -0.7990     6.8460 ca         1 QUW       0.179900
     21 CAZ         -2.4930     0.2110     5.9990 ca         1 QUW      -0.195300
     22 CBA          0.6650    -0.0000     2.3180 cd         1 QUW      -0.180400
     23 CBB          1.7090    -0.0010     3.2760 c          1 QUW       0.712700
     24 CBC          2.4010     0.0010     0.5780 ca         1 QUW      -0.270100
     25 CBD          3.3810     0.0000     1.5870 ca         1 QUW       0.603200
     26 NBE          3.0010    -0.0010     2.9100 n          1 QUW      -0.269800
     27 HNAA         0.3840     0.2980    -0.8750 hn         1 QUW       0.475133
     28 HNAB        -0.3710    -0.9240    -0.0960 hn         1 QUW       0.475133
     29 HOAD         6.4000    -4.2260    -7.6820 ho         1 QUW       0.411000
     30 HOAE         4.1730    -0.8870     4.1860 ho         1 QUW       0.430000
     31 HAH         -3.4140     2.5030     8.3010 ha         1 QUW       0.163000
     32 HAI         -3.3080     2.1850     5.8580 ha         1 QUW       0.147000
     33 HAJ          6.1190     0.0000    -0.2230 h4         1 QUW       0.063100
     34 HAK         -1.7920    -1.4080     8.8810 ha         1 QUW       0.172000
     35 HAL          2.0590     0.0020    -1.5610 ha         1 QUW       0.132000
     36 HAM          6.8850    -2.3700    -6.4010 h1         1 QUW       0.021700
     37 HAMA         5.2080    -2.3680    -6.9660 h1         1 QUW       0.021700
     38 HAN          6.1650    -3.3920    -4.2680 hc         1 QUW       0.056200
     39 HANA         4.4880    -3.3910    -4.8330 hc         1 QUW       0.056200
     40 HAO          4.5570    -0.9270    -5.0320 hc         1 QUW       0.047700
     41 HAOA         6.2340    -0.9280    -4.4670 hc         1 QUW       0.047700
     42 HAP          3.8380    -1.9500    -2.8990 hc         1 QUW       0.047200
     43 HAPA         5.5140    -1.9510    -2.3340 hc         1 QUW       0.047200
     44 HAQ          5.5830     0.5130    -2.5320 hc         1 QUW       0.066200
     45 HAQA         3.9060     0.5140    -3.0970 hc         1 QUW       0.066200
     46 HAR         -2.8070    -0.9640     4.2520 h1         1 QUW       0.073200
     47 HARA        -3.0300     0.7750     4.0180 h1         1 QUW       0.073200
     48 HNAT        -0.3170     0.3520     4.7190 hn         1 QUW       0.372500
     49 CAU         -0.7370    -0.0000     2.7520 c          1 QUW       0.666300
     50 FAG         -1.5970    -1.9560     6.3340 f          1 QUW      -0.129900
     51 CAN          5.4420    -2.8800    -4.8920 c3         1 QUW      -0.081400
     52 HAA3        -0.7270     0.6320     0.2700 hn         1 QUW       0.475133
     53 CAQ          4.6290     0.0030    -2.4730 c3         1 QUW      -0.042100
     54 FAF         -2.6700     0.7390    10.0790 f          1 QUW      -0.117900
@<TRIPOS>BOND
     1     1    19 1
     2     2    49 2
     3     3    23 2
     4     4    11 1
     5     5    26 1
     6    54    17 1
     7    50    20 1
     8     6     7 ar
     9     6    17 ar
    10     7    21 ar
    11     8    15 ar
    12     8    18 ar
    13     9    17 ar
    14     9    20 ar
    15    10    18 ar
    16    10    24 ar
    17    11    51 1
    18    51    12 1
    19    12    13 1
    20    13    53 1
    21    53    18 1
    22    14    16 1
    23    14    21 1
    24    15    25 ar
    25    16    49 1
    26    49    22 1
    27    19    22 2
    28    19    24 1
    29    20    21 ar
    30    22    23 1
    31    23    26 1
    32    24    25 ar
    33    25    26 1
    34     1    27 1
    35     1    28 1
    36     4    29 1
    37     5    30 1
    38     6    31 1
    39     7    32 1
    40     8    33 1
    41     9    34 1
    42    10    35 1
    43    11    36 1
    44    11    37 1
    45    51    38 1
    46    51    39 1
    47    12    40 1
    48    12    41 1
    49    13    42 1
    50    13    43 1
    51    53    44 1
    52    53    45 1
    53    14    46 1
    54    14    47 1
    55    16    48 1
    56    52     1 1
@<TRIPOS>SUBSTRUCTURE
     1 QUW         1 TEMP              0 ****  ****    0 ROOT
