@<TRIPOS>MOLECULE
QUW
   54    56     1     0     0
SMALL
bcc


@<TRIPOS>ATOM
      1 NAA          0.0000     0.0000     0.0000 nz         1 QUW       0.246600
      2 OAB         -1.6280    -0.1230     1.9320 o          1 QUW      -0.731100
      3 OAC          1.4280    -0.0010     4.4610 o          1 QUW      -0.638500
      4 OAD          6.0820    -4.2270    -6.7940 oh         1 QUW      -0.591800
      5 OAE          4.0000    -0.0010     3.9140 oh         1 QUW      -0.405100
      6 CAH         -3.0360     1.5740     7.8920 ca         1 QUW      -0.139000
      7 CAI         -2.9760     1.3960     6.5220 ca         1 QUW      -0.025000
      8 CAJ          5.0590     0.0000     0.0000 ca         1 QUW       0.496200
      9 CAK         -2.1290    -0.6210     8.2180 ca         1 QUW      -0.161000
     10 CAL          2.7940     0.0010    -0.7650 ca         1 QUW      -0.056000
     11 CAM          5.9310    -2.8800    -6.3420 c3         1 QUW       0.228400
     12 CAO          5.2800    -1.4380    -4.4080 c3         1 QUW      -0.023400
     13 CAP          4.7920    -1.4400    -2.9580 c3         1 QUW      -0.022400
     14 CAR         -2.4280     0.0190     4.5060 c3         1 QUW       0.107300
     15 NAS          4.6670     0.0000     1.2570 nb         1 QUW      -0.558000
     16 NAT         -1.0380     0.1370     4.0590 ns         1 QUW      -0.105900
     17 CAV         -2.6120     0.5650     8.7400 ca         1 QUW       0.162900
     18 CAW          4.1480     0.0010    -1.0450 ca         1 QUW      -0.176600
     19 CAX          0.9830     0.0000     0.9540 cc         1 QUW      -0.185200
     20 CAY         -2.0690    -0.7990     6.8460 ca         1 QUW       0.151900
     21 CAZ         -2.4930     0.2110     5.9990 ca         1 QUW      -0.195300
     22 CBA          0.6650    -0.0000     2.3180 cd         1 QUW      -0.134400
     23 CBB          1.7090    -0.0010     3.2760 c          1 QUW       0.583700
     24 CBC          2.4010     0.0010     0.5780 ca         1 QUW      -0.243100
     25 CBD          3.3810     0.0000     1.5870 ca         1 QUW       0.377200
     26 NBE          3.0010    -0.0010     2.9100 n          1 QUW       0.197200
     27 HNAA         0.3840     0.2980    -0.8750 hn         1 QUW       0.231800
     28 HNAB        -0.3710    -0.9240    -0.0960 hn         1 QUW       0.231800
     29 HOAD         6.4000    -4.2260    -7.6820 ho         1 QUW       0.398000
     30 HOAE         4.1730    -0.8870     4.1860 ho         1 QUW       0.426000
     31 HAH         -3.4140     2.5030     8.3010 ha         1 QUW       0.133000
     32 HAI         -3.3080     2.1850     5.8580 ha         1 QUW       0.115000
     33 HAJ          6.1190     0.0000    -0.2230 h4         1 QUW       0.008100
     34 HAK         -1.7920    -1.4080     8.8810 ha         1 QUW       0.145000
     35 HAL          2.0590     0.0020    -1.5610 ha         1 QUW       0.109000
     36 HAM          6.8850    -2.3700    -6.4010 h1         1 QUW      -0.014800
     37 HAMA         5.2080    -2.3680    -6.9660 h1         1 QUW      -0.014800
     38 HAN          6.1650    -3.3920    -4.2680 hc         1 QUW       0.024700
     39 HANA         4.4880    -3.3910    -4.8330 hc         1 QUW       0.024700
     40 HAO          4.5570    -0.9270    -5.0320 hc         1 QUW       0.019200
     41 HAOA         6.2340    -0.9280    -4.4670 hc         1 QUW       0.019200
     42 HAP          3.8380    -1.9500    -2.8990 hc         1 QUW       0.016700
     43 HAPA         5.5140    -1.9510    -2.3340 hc         1 QUW       0.016700
     44 HAQ          5.5830     0.5130    -2.5320 hc         1 QUW       0.032700
     45 HAQA         3.9060     0.5140    -3.0970 hc         1 QUW       0.032700
     46 HAR         -2.8070    -0.9640     4.2520 h1         1 QUW       0.043200
     47 HARA        -3.0300     0.7750     4.0180 h1         1 QUW       0.043200
     48 HNAT        -0.3170     0.3520     4.7190 hn         1 QUW       0.243500
     49 CAU         -0.7370    -0.0000     2.7520 c          1 QUW       0.569300
     50 FAG         -1.5970    -1.9560     6.3340 f          1 QUW      -0.121900
     51 CAN          5.4420    -2.8800    -4.8920 c3         1 QUW      -0.038400
     52 HAA3        -0.7270     0.6320     0.2700 hn         1 QUW       0.231800
     53 CAQ          4.6290     0.0030    -2.4730 c3         1 QUW       0.025900
     54 FAF         -2.6700     0.7390    10.0790 f          1 QUW      -0.111900
@<TRIPOS>BOND
     1     1    19 1   
     2     1    27 1   
     3     1    28 1   
     4     1    52 1   
     5     2    49 2   
     6     3    23 2   
     7     4    11 1   
     8     4    29 1   
     9     5    26 1   
    10     5    30 1   
    11     6     7 ar  
    12     6    17 ar  
    13     6    31 1   
    14     7    21 ar  
    15     7    32 1   
    16     8    15 ar  
    17     8    18 ar  
    18     8    33 1   
    19     9    17 ar  
    20     9    20 ar  
    21     9    34 1   
    22    10    18 ar  
    23    10    24 ar  
    24    10    35 1   
    25    11    36 1   
    26    11    37 1   
    27    11    51 1   
    28    12    13 1   
    29    12    40 1   
    30    12    41 1   
    31    12    51 1   
    32    13    42 1   
    33    13    43 1   
    34    13    53 1   
    35    14    16 1   
    36    14    21 1   
    37    14    46 1   
    38    14    47 1   
    39    15    25 ar  
    40    16    48 1   
    41    16    49 1   
    42    17    54 1   
    43    18    53 1   
    44    19    22 2   
    45    19    24 1   
    46    20    21 ar  
    47    20    50 1   
    48    22    23 1   
    49    22    49 1   
    50    23    26 1   
    51    24    25 ar  
    52    25    26 1   
    53    38    51 1   
    54    39    51 1   
    55    44    53 1   
    56    45    53 1   
@<TRIPOS>SUBSTRUCTURE
     1 QUW         1 TEMP              0 ****  ****    0 ROOT
