@<TRIPOS>MOLECULE
molecule
   16    17     1     0     0
SMALL
bcc


@<TRIPOS>ATOM
      1 C01          0.0000     0.0000     0.0000 ca         1 QUZ      -0.131000
      2 C02          1.3930     0.0000     0.0000 ca         1 QUZ      -0.103000
      3 C03          2.0970     0.0000     1.1670 ca         1 QUZ      -0.172300
      4 C04          1.4110     0.0010     2.3890 ca         1 QUZ       0.443600
      5 N05          2.0530     0.0010     3.5650 nb         1 QUZ      -0.722000
      6 C06          1.3750     0.0020     4.6870 ca         1 QUZ       0.679900
      7 N07          0.0500     0.0030     4.7280 nb         1 QUZ      -0.744000
      8 C08         -0.6740     0.0030     3.6270 ca         1 QUZ       0.484200
      9 C09         -0.0080     0.0020     2.3880 ca         1 QUZ      -0.290600
     10 C10         -0.7000     0.0020     1.1690 ca         1 QUZ      -0.095000
     11 H01         -0.5340    -0.0000    -0.9430 ha         1 QUZ       0.134000
     12 H02          1.9260    -0.0020    -0.9430 ha         1 QUZ       0.136000
     13 H03          3.1800     0.0000     1.1490 ha         1 QUZ       0.153000
     14 H06          1.9220     0.0020     5.6220 h5         1 QUZ       0.059100
     15 H08         -1.7570     0.0040     3.6760 h4         1 QUZ       0.032100
     16 H10         -1.7830     0.0020     1.1560 ha         1 QUZ       0.136000
@<TRIPOS>BOND
     1     1     2 ar
     2     1    10 ar
     3     2     3 ar
     4     3     4 ar
     5     4     5 ar
     6     4     9 ar
     7     5     6 ar
     8     6     7 ar
     9     7     8 ar
    10     8     9 ar
    11     9    10 ar
    12     1    11 1
    13     2    12 1
    14     3    13 1
    15     6    14 1
    16     8    15 1
    17    10    16 1
@<TRIPOS>SUBSTRUCTURE
     1 QUZ         1 TEMP              0 ****  ****    0 ROOT
