@<TRIPOS>MOLECULE
QUZ
   16    17     1     0     0
SMALL
bcc


@<TRIPOS>ATOM
      1 C01        -0.0130    0.0000   -0.0360 ca        1 QUZ     -0.131000
      2 C02         1.4020   -0.0010   -0.0330 ca        1 QUZ     -0.108000
      3 C03         2.1110   -0.0000    1.1430 ca        1 QUZ     -0.172300
      4 C04         1.4190    0.0010    2.3940 ca        1 QUZ      0.411600
      5 N05         2.1140    0.0010    3.5940 nb        1 QUZ     -0.678000
      6 C06         1.3790    0.0020    4.7030 ca        1 QUZ      0.630900
      7 N07        -0.0080    0.0030    4.8020 nb        1 QUZ     -0.696000
      8 C08        -0.6700    0.0030    3.6580 ca        1 QUZ      0.455200
      9 C09        -0.0110    0.0020    2.3780 ca        1 QUZ     -0.273600
     10 C10        -0.7090    0.0010    1.1500 ca        1 QUZ     -0.093000
     11 H01        -0.5460    0.0000   -0.9990 ha        1 QUZ      0.139000
     12 H02         1.9340   -0.0010   -0.9980 ha        1 QUZ      0.139000
     13 H03         3.2130   -0.0010    1.1410 ha        1 QUZ      0.155000
     14 H06         1.9210    0.0030    5.6720 h5        1 QUZ      0.055100
     15 H08        -1.7740    0.0040    3.7050 h4        1 QUZ      0.028100
     16 H10        -1.8100    0.0020    1.1610 ha        1 QUZ      0.138000
@<TRIPOS>BOND
     1    1    2 ar  
     2    1   10 ar  
     3    1   11 1   
     4    2    3 ar  
     5    2   12 1   
     6    3    4 ar  
     7    3   13 1   
     8    4    5 ar  
     9    4    9 ar  
    10    5    6 ar  
    11    6    7 ar  
    12    6   14 1   
    13    7    8 ar  
    14    8    9 ar  
    15    8   15 1   
    16    9   10 ar  
    17   10   16 1   
@<TRIPOS>SUBSTRUCTURE
     1 QUZ         1 TEMP              0 ****  ****    0 ROOT
