@<TRIPOS>MOLECULE
molecule
   69    73     1     0     0
SMALL
bcc


@<TRIPOS>ATOM
      1 CAA          0.0000     0.0000     0.0000 c3         1 QV6      -0.037800
      2 CAC          4.3320    -0.0010     2.5040 c3         1 QV6      -0.048800
      3 CAD          2.4460    -2.4770   -11.7820 c3         1 QV6      -0.050800
      4 CAE          6.1920    -0.4290    -9.1730 c3         1 QV6      -0.051800
      5 OAF          2.1290    -2.4280    -2.3780 o          1 QV6      -0.506100
      6 OAG          4.7940    -2.0800    -6.9670 o          1 QV6      -0.474100
      7 OAH          6.4950    -0.7300    -1.2490 o          1 QV6      -0.712533
      8 OAI          6.4350    -0.8130     1.1070 o          1 QV6      -0.712533
      9 OAJ          4.6390    -2.1000   -12.9690 o          1 QV6      -0.720200
     10 OAK          5.8480    -3.2520   -11.3050 o          1 QV6      -0.720200
     11 OAL          6.4420     1.3530    -0.1430 o          1 QV6      -0.712533
     12 OAM          6.3140    -0.8620   -11.8680 o          1 QV6      -0.720200
     13 CAN          3.9360    -5.8820    -3.8720 ca         1 QV6      -0.133000
     14 CAO          4.6230    -5.7930    -5.0680 ca         1 QV6      -0.126000
     15 CAP          2.2850     1.2920    -4.2960 ca         1 QV6      -0.123000
     16 CAQ          2.9640     1.3810    -5.4760 ca         1 QV6      -0.148000
     17 CAR          3.3190    -4.7680    -3.3330 ca         1 QV6      -0.086000
     18 CAS          4.7090    -4.5870    -5.7400 ca         1 QV6      -0.080000
     19 CAT          2.1990     0.0000     1.1960 ca         1 QV6      -0.128000
     20 CAU          2.0300    -1.3140    -9.6060 ca         1 QV6      -0.150000
     21 CAV          3.5920    -0.0010    -1.1980 ca         1 QV6      -0.084000
     22 NAW          1.5070     0.0000    -2.4130 nu         1 QV6      -0.706000
     23 NAX          4.2740     0.3600    -7.2260 nu         1 QV6      -0.700000
     24 CAY          1.5080     0.0000     0.0000 ca         1 QV6      -0.141300
     25 CAZ          2.4720    -0.6260    -8.4930 ca         1 QV6      -0.117300
     26 CBA          3.5820    -0.0000     1.1970 ca         1 QV6      -0.049300
     27 CBB          2.9320    -1.7200   -10.5730 ca         1 QV6      -0.011300
     28 CBC          4.7250    -0.7410    -9.3250 ca         1 QV6      -0.006300
     29 CBD          2.2030    -0.0000    -1.2020 ca         1 QV6       0.181600
     30 CBE          2.2000     0.0760    -3.6110 ca         1 QV6       0.176600
     31 CBF          3.5890     0.2560    -6.0250 ca         1 QV6       0.222600
     32 CBG          3.8240    -0.3370    -8.3490 ca         1 QV6       0.157600
     33 CBH          4.2780    -0.0010     0.0010 ca         1 QV6      -0.215500
     34 CBI          4.2770    -1.4340   -10.4330 ca         1 QV6      -0.242500
     35 CBJ          2.7350    -2.3490    -3.4290 c          1 QV6       0.592300
     36 CBK          4.1810    -2.1610    -5.9200 c          1 QV6       0.576300
     37 CBL          3.3910    -3.5460    -3.9970 ca         1 QV6      -0.120600
     38 CBM          4.0990    -3.4530    -5.2090 ca         1 QV6      -0.110600
     39 CBN          2.8170    -1.0650    -4.1390 ca         1 QV6      -0.122600
     40 CBO          3.5190    -0.9730    -5.3590 ca         1 QV6      -0.145600
     41 SBP          6.0390    -0.0020     0.0090 s6         1 QV6       1.325100
     42 SBQ          5.4190    -1.9480   -11.6710 s6         1 QV6       1.342100
     43 HAA         -0.3610    -0.8990    -0.4850 hc         1 QV6       0.025700
     44 HAAA        -0.3610     0.8700    -0.5360 hc         1 QV6       0.025700
     45 HAAB        -0.3610     0.0290     1.0210 hc         1 QV6       0.025700
     46 HAB          0.4820    -0.2730    -7.8240 hc         1 QV6       0.034700
     47 HABA         1.6870     0.8410    -7.1650 hc         1 QV6       0.034700
     48 HABB         1.5950    -0.8200    -6.5630 hc         1 QV6       0.034700
     49 HAC          4.7660    -0.9800     2.6710 hc         1 QV6       0.042700
     50 HACA         3.6500     0.2340     3.3120 hc         1 QV6       0.042700
     51 HACB         5.1200     0.7410     2.4680 hc         1 QV6       0.042700
     52 HAD          3.0620    -3.3560   -11.9300 hc         1 QV6       0.049700
     53 HADA         2.5100    -1.8400   -12.6570 hc         1 QV6       0.049700
     54 HADB         1.4170    -2.7780   -11.6300 hc         1 QV6       0.049700
     55 HAE          6.4110    -0.2230    -8.1320 hc         1 QV6       0.049367
     56 HAEA         6.4410     0.4370    -9.7730 hc         1 QV6       0.049367
     57 HAEB         6.7780    -1.2780    -9.5040 hc         1 QV6       0.049367
     58 HAN          3.8760    -6.8330    -3.3550 ha         1 QV6       0.119000
     59 HAO          5.1020    -6.6730    -5.4800 ha         1 QV6       0.125000
     60 HAP          1.8070     2.1730    -3.8850 ha         1 QV6       0.133000
     61 HAQ          3.0190     2.3310    -5.9930 ha         1 QV6       0.134000
     62 HAR          2.7820    -4.8450    -2.3950 ha         1 QV6       0.148000
     63 HAS          5.2490    -4.5240    -6.6760 ha         1 QV6       0.165000
     64 HAT          1.6570    -0.0010     2.1340 ha         1 QV6       0.104000
     65 HAU          0.9700    -1.3760    -9.8170 ha         1 QV6       0.108000
     66 HAV          4.1370    -0.0010    -2.1340 ha         1 QV6       0.159000
     67 HNAW         0.5060    -0.0190    -2.4150 hn         1 QV6       0.436800
     68 HNAX         5.0680     0.9660    -7.2980 hn         1 QV6       0.452800
     69 CAB          1.4900    -0.1890    -7.4370 c3         1 QV6      -0.053800
@<TRIPOS>BOND
     1     1    24 1
     2     1    43 1
     3     1    44 1
     4     1    45 1
     5    25    69 1
     6    69    46 1
     7    69    47 1
     8    69    48 1
     9     2    26 1
    10     2    49 1
    11     2    50 1
    12     2    51 1
    13    27     3 1
    14     3    52 1
    15     3    53 1
    16     3    54 1
    17     4    28 1
    18     4    55 1
    19     4    56 1
    20     4    57 1
    21     5    35 2
    22    36     6 2
    23    41     7 1
    24    41     8 1
    25    42     9 1
    26    10    42 1
    27    11    41 1
    28    42    12 1
    29    17    13 ar
    30    13    14 ar
    31    13    58 1
    32    14    18 ar
    33    14    59 1
    34    30    15 ar
    35    15    16 ar
    36    15    60 1
    37    16    31 ar
    38    16    61 1
    39    17    37 ar
    40    17    62 1
    41    38    18 ar
    42    18    63 1
    43    19    26 ar
    44    19    24 ar
    45    19    64 1
    46    25    20 ar
    47    27    20 ar
    48    20    65 1
    49    33    21 ar
    50    29    21 ar
    51    21    66 1
    52    29    22 1
    53    22    30 1
    54    22    67 1
    55    31    23 1
    56    23    32 1
    57    23    68 1
    58    24    29 ar
    59    32    25 ar
    60    26    33 ar
    61    34    27 ar
    62    28    32 ar
    63    28    34 ar
    64    30    39 ar
    65    40    31 ar
    66    33    41 1
    67    42    34 1
    68    35    39 1
    69    35    37 1
    70    40    36 1
    71    38    36 1
    72    37    38 ar
    73    39    40 ar
@<TRIPOS>SUBSTRUCTURE
     1 QV6         1 TEMP              0 ****  ****    0 ROOT
