@<TRIPOS>MOLECULE
molecule
   55    58     1     0     0
SMALL
bcc


@<TRIPOS>ATOM
      1 OAA          0.0000     0.0000     0.0000 o          1 QV7      -0.725867
      2 OAB          1.9240     0.0000     1.3630 o          1 QV7      -0.725867
      3 OAC          5.3080    17.8250    -1.7660 o          1 QV7      -0.730200
      4 OAD          7.5260    17.9230    -2.5600 o          1 QV7      -0.730200
      5 OAE          6.0430     7.4920    -7.9300 o          1 QV7      -0.702867
      6 OAF          4.2940     9.2750    -8.0250 o          1 QV7      -0.702867
      7 OAG          8.0360    13.4500    -9.2590 o          1 QV7      -0.713533
      8 OAH          6.4410    15.1860    -9.2970 o          1 QV7      -0.713533
      9 OAJ          1.9240    -0.9970    -0.9290 o          1 QV7      -0.725867
     10 OAK          6.8930    16.5660    -0.5590 o          1 QV7      -0.730200
     11 OAL          3.7790     7.0010    -8.3650 o          1 QV7      -0.702867
     12 OAM          5.7980    12.7890    -9.5940 o          1 QV7      -0.713533
     13 CAN          4.0650     7.5790    -3.1950 ca         1 QV7      -0.096000
     14 CAO          2.6540     3.8370    -0.3530 ca         1 QV7      -0.151000
     15 CAP          2.6550     2.8720    -2.5690 ca         1 QV7      -0.151000
     16 CAQ          4.4730     8.7720    -3.7150 ca         1 QV7      -0.194000
     17 CAR          2.2460     2.6260     0.1660 ca         1 QV7      -0.052500
     18 CAS          2.2470     1.6680    -2.0360 ca         1 QV7      -0.052500
     19 CAT          5.9470    14.4690    -2.3250 ca         1 QV7      -0.037000
     20 CAU          5.7260    13.3690    -3.1000 ca         1 QV7      -0.167000
     21 CAV          4.0650     6.6110    -5.4190 ca         1 QV7       0.028000
     22 CAW          6.5560    15.7820    -4.2370 ca         1 QV7      -0.003000
     23 CAX          6.5360    14.7430    -6.4550 ca         1 QV7       0.037000
     24 NAZ          3.4550     5.2860    -3.5200 ne         1 QV7      -0.190400
     25 NBA          5.0890    10.0940    -5.6130 nf         1 QV7      -0.218400
     26 NBB          5.2850    11.1040    -4.8350 ne         1 QV7      -0.204400
     27 CBC          2.8620     3.9700    -1.7280 ca         1 QV7       0.145400
     28 CBD          3.8580     6.4810    -4.0400 ca         1 QV7       0.029400
     29 CBE          5.9030    12.4380    -6.7260 ca         1 QV7       0.268100
     30 CBF          4.6810     8.9020    -5.0950 ca         1 QV7       0.240400
     31 CBG          2.0430     1.5440    -0.6720 ca         1 QV7      -0.271500
     32 CBH          6.3580    15.6720    -2.8930 ca         1 QV7      -0.301500
     33 CBI          4.4680     7.8070    -5.9390 ca         1 QV7      -0.236500
     34 CBJ          6.3260    13.6600    -7.2480 ca         1 QV7      -0.344500
     35 CBK          5.6920    12.2910    -5.3510 ca         1 QV7       0.000400
     36 CBL          6.3430    14.6670    -5.0640 ca         1 QV7      -0.122000
     37 CBM          5.9190    13.4470    -4.4830 ca         1 QV7       0.069000
     38 SBN          1.5230     0.0000     0.0000 s6         1 QV7       1.339100
     39 SBP          4.7280     7.9690    -7.6750 s6         1 QV7       1.324100
     40 HOAI         6.5320    11.0290    -7.8230 ho         1 QV7       0.442000
     41 HAN          3.9050     7.4790    -2.1290 ha         1 QV7       0.132000
     42 HAO          2.8120     4.6840     0.3040 ha         1 QV7       0.134000
     43 HAP          2.8140     2.9680    -3.6360 ha         1 QV7       0.134000
     44 HAQ          4.6330     9.6210    -3.0610 ha         1 QV7       0.141000
     45 HAR          2.0850     2.5220     1.2320 ha         1 QV7       0.138500
     46 HAS          2.0860     0.8160    -2.6860 ha         1 QV7       0.138500
     47 HAT          5.7970    14.4080    -1.2540 ha         1 QV7       0.133000
     48 HAU          5.4060    12.4390    -2.6460 ha         1 QV7       0.132000
     49 HAV          3.9030     5.7620    -6.0720 ha         1 QV7       0.160000
     50 HAW          6.8760    16.7250    -4.6640 ha         1 QV7       0.145000
     51 HAX          6.8820    15.6880    -6.8570 ha         1 QV7       0.145000
     52 SBO          6.6280    17.0740    -1.8590 s6         1 QV7       1.344100
     53 OAI          5.7000    11.3840    -7.5560 oh         1 QV7      -0.421100
     54 NAY          3.2650     5.1670    -2.2490 nf         1 QV7      -0.289400
     55 SBQ          6.5820    13.8070    -8.9860 s6         1 QV7       1.325100
@<TRIPOS>BOND
     1    38     1 1
     2     2    38 1
     3    52     3 1
     4     4    52 1
     5     5    39 1
     6     6    39 1
     7     7    55 1
     8     8    55 1
     9    53    29 1
    10    53    40 1
    11    38     9 1
    12    10    52 1
    13    39    11 1
    14    12    55 1
    15    16    13 ar
    16    28    13 ar
    17    13    41 1
    18    14    27 ar
    19    14    17 ar
    20    14    42 1
    21    27    15 ar
    22    15    18 ar
    23    15    43 1
    24    30    16 ar
    25    16    44 1
    26    17    31 ar
    27    17    45 1
    28    31    18 ar
    29    18    46 1
    30    20    19 ar
    31    32    19 ar
    32    19    47 1
    33    37    20 ar
    34    20    48 1
    35    33    21 ar
    36    21    28 ar
    37    21    49 1
    38    36    22 ar
    39    22    32 ar
    40    22    50 1
    41    34    23 ar
    42    23    36 ar
    43    23    51 1
    44    24    54 2
    45    54    27 1
    46    28    24 1
    47    26    25 2
    48    25    30 1
    49    35    26 1
    50    34    29 ar
    51    29    35 ar
    52    33    30 ar
    53    31    38 1
    54    32    52 1
    55    39    33 1
    56    55    34 1
    57    35    37 ar
    58    36    37 ar
@<TRIPOS>SUBSTRUCTURE
     1 QV7         1 TEMP              0 ****  ****    0 ROOT
