@<TRIPOS>MOLECULE
QV7
   55    58     1     0     0
SMALL
bcc


@<TRIPOS>ATOM
      1 OAA          0.0000     0.0000     0.0000 o          1 QV7      -0.672533
      2 OAB          1.9240     0.0000     1.3630 o          1 QV7      -0.672533
      3 OAC          5.3080    17.8250    -1.7660 o          1 QV7      -0.677533
      4 OAD          7.5260    17.9230    -2.5600 o          1 QV7      -0.677533
      5 OAE          6.0430     7.4920    -7.9300 o          1 QV7      -0.650200
      6 OAF          4.2940     9.2750    -8.0250 o          1 QV7      -0.650200
      7 OAG          8.0360    13.4500    -9.2590 o          1 QV7      -0.661867
      8 OAH          6.4410    15.1860    -9.2970 o          1 QV7      -0.661867
      9 OAJ          1.9240    -0.9970    -0.9290 o          1 QV7      -0.672533
     10 OAK          6.8930    16.5660    -0.5590 o          1 QV7      -0.677533
     11 OAL          3.7790     7.0010    -8.3650 o          1 QV7      -0.650200
     12 OAM          5.7980    12.7890    -9.5940 o          1 QV7      -0.661867
     13 CAN          4.0650     7.5790    -3.1950 ca         1 QV7      -0.070000
     14 CAO          2.6540     3.8370    -0.3530 ca         1 QV7      -0.146000
     15 CAP          2.6550     2.8720    -2.5690 ca         1 QV7      -0.146000
     16 CAQ          4.4730     8.7720    -3.7150 ca         1 QV7      -0.192000
     17 CAR          2.2460     2.6260     0.1660 ca         1 QV7      -0.022500
     18 CAS          2.2470     1.6680    -2.0360 ca         1 QV7      -0.022500
     19 CAT          5.9470    14.4690    -2.3250 ca         1 QV7      -0.007000
     20 CAU          5.7260    13.3690    -3.1000 ca         1 QV7      -0.166000
     21 CAV          4.0650     6.6110    -5.4190 ca         1 QV7       0.059000
     22 CAW          6.5560    15.7820    -4.2370 ca         1 QV7       0.028000
     23 CAX          6.5360    14.7430    -6.4550 ca         1 QV7       0.073000
     24 NAZ          3.4550     5.2860    -3.5200 ne         1 QV7      -0.118400
     25 NBA          5.0890    10.0940    -5.6130 ne         1 QV7      -0.185400
     26 NBB          5.2850    11.1040    -4.8350 nf         1 QV7      -0.139400
     27 CBC          2.8620     3.9700    -1.7280 ca         1 QV7       0.115400
     28 CBD          3.8580     6.4810    -4.0400 ca         1 QV7      -0.032600
     29 CBE          5.9030    12.4380    -6.7260 ca         1 QV7       0.298100
     30 CBF          4.6810     8.9020    -5.0950 ca         1 QV7       0.225400
     31 CBG          2.0430     1.5440    -0.6720 ca         1 QV7      -0.109500
     32 CBH          6.3580    15.6720    -2.8930 ca         1 QV7      -0.144500
     33 CBI          4.4680     7.8070    -5.9390 ca         1 QV7      -0.093500
     34 CBJ          6.3260    13.6600    -7.2480 ca         1 QV7      -0.199500
     35 CBK          5.6920    12.2910    -5.3510 ca         1 QV7      -0.072600
     36 CBL          6.3430    14.6670    -5.0640 ca         1 QV7      -0.151000
     37 CBM          5.9190    13.4470    -4.4830 ca         1 QV7       0.070000
     38 SBN          1.5230     0.0000     0.0000 s6         1 QV7       1.035100
     39 SBP          4.7280     7.9690    -7.6750 s6         1 QV7       1.026100
     40 HOAI         6.5320    11.0290    -7.8230 ho         1 QV7       0.425000
     41 HAN          3.9050     7.4790    -2.1290 ha         1 QV7       0.107000
     42 HAO          2.8120     4.6840     0.3040 ha         1 QV7       0.109500
     43 HAP          2.8140     2.9680    -3.6360 ha         1 QV7       0.109500
     44 HAQ          4.6330     9.6210    -3.0610 ha         1 QV7       0.119000
     45 HAR          2.0850     2.5220     1.2320 ha         1 QV7       0.112500
     46 HAS          2.0860     0.8160    -2.6860 ha         1 QV7       0.112500
     47 HAT          5.7970    14.4080    -1.2540 ha         1 QV7       0.106000
     48 HAU          5.4060    12.4390    -2.6460 ha         1 QV7       0.108000
     49 HAV          3.9030     5.7620    -6.0720 ha         1 QV7       0.126000
     50 HAW          6.8760    16.7250    -4.6640 ha         1 QV7       0.117000
     51 HAX          6.8820    15.6880    -6.8570 ha         1 QV7       0.113000
     52 SBO          6.6280    17.0740    -1.8590 s6         1 QV7       1.039100
     53 OAI          5.7000    11.3840    -7.5560 oh         1 QV7      -0.399100
     54 NAY          3.2650     5.1670    -2.2490 nf         1 QV7      -0.262400
     55 SBQ          6.5820    13.8070    -8.9860 s6         1 QV7       1.030100
@<TRIPOS>BOND
     1     1    38 1   
     2     2    38 1   
     3     3    52 1   
     4     4    52 1   
     5     5    39 1   
     6     6    39 1   
     7     7    55 1   
     8     8    55 1   
     9     9    38 1   
    10    10    52 1   
    11    11    39 1   
    12    12    55 1   
    13    13    16 ar  
    14    13    28 ar  
    15    13    41 1   
    16    14    17 ar  
    17    14    27 ar  
    18    14    42 1   
    19    15    18 ar  
    20    15    27 ar  
    21    15    43 1   
    22    16    30 ar  
    23    16    44 1   
    24    17    31 ar  
    25    17    45 1   
    26    18    31 ar  
    27    18    46 1   
    28    19    20 ar  
    29    19    32 ar  
    30    19    47 1   
    31    20    37 ar  
    32    20    48 1   
    33    21    28 ar  
    34    21    33 ar  
    35    21    49 1   
    36    22    32 ar  
    37    22    36 ar  
    38    22    50 1   
    39    23    34 ar  
    40    23    36 ar  
    41    23    51 1   
    42    24    28 1   
    43    24    54 2   
    44    25    26 2   
    45    25    30 1   
    46    26    35 1   
    47    27    54 1   
    48    29    34 ar  
    49    29    35 ar  
    50    29    53 1   
    51    30    33 ar  
    52    31    38 1   
    53    32    52 1   
    54    33    39 1   
    55    34    55 1   
    56    35    37 ar  
    57    36    37 ar  
    58    40    53 1   
@<TRIPOS>SUBSTRUCTURE
     1 QV7         1 TEMP              0 ****  ****    0 ROOT
