@<TRIPOS>MOLECULE
molecule
   39    42     1     0     0
SMALL
bcc


@<TRIPOS>ATOM
      1 OAA          0.0000     0.0000     0.0000 o          1 QV8      -0.519100
      2 OAB          2.4200    -0.0080     4.6600 o          1 QV8      -0.516100
      3 OAC         -4.3830     1.1800     2.0250 o          1 QV8      -0.697867
      4 OAD         -3.9630     3.2790     3.0110 o          1 QV8      -0.697867
      5 OAE         -4.4500     1.5180     4.5010 o          1 QV8      -0.697867
      6 CAF          2.8260     4.1950     7.0100 ca         1 QV8      -0.197000
      7 CAG          2.2570     4.1690     5.7490 ca         1 QV8      -0.088500
      8 CAH          2.6000     3.1580     7.8960 ca         1 QV8      -0.088500
      9 CAI          4.1960     0.0000     0.0000 ca         1 QV8      -0.128000
     10 CAJ          4.8340     0.0000     1.2270 ca         1 QV8      -0.129000
     11 CAK          1.4550     3.1080     5.3750 ca         1 QV8      -0.200000
     12 CAL          1.8040     2.0920     7.5250 ca         1 QV8      -0.200000
     13 CAM          2.8170     0.0800    -0.0740 ca         1 QV8      -0.089000
     14 CAN          4.1010     0.0770     2.3990 ca         1 QV8      -0.089000
     15 CAO         -1.5590     1.3350     4.5510 ca         1 QV8      -0.030000
     16 CAP         -1.4960     0.9850     2.1750 ca         1 QV8       0.012000
     17 NAQ          0.4160     0.9900     5.8860 nu         1 QV8      -0.689000
     18 CAR          1.2210     2.0670     6.2650 ca         1 QV8       0.224600
     19 CAS         -2.1880     1.3400     3.3250 ca         1 QV8      -0.234500
     20 CAT         -0.2140     0.9950     4.6500 ca         1 QV8       0.148600
     21 CAU          0.5900     0.2390     1.0350 c          1 QV8       0.588300
     22 CAV          1.9130     0.2410     3.5830 c          1 QV8       0.586300
     23 CAW          2.0660     0.1530     1.0940 ca         1 QV8      -0.124600
     24 CAX          2.7140     0.1570     2.3420 ca         1 QV8      -0.124600
     25 CAY         -0.1590     0.6200     2.2530 ca         1 QV8      -0.170600
     26 CAZ          0.4940     0.6290     3.5000 ca         1 QV8      -0.136600
     27 HAF          3.4520     5.0290     7.3020 ha         1 QV8       0.115000
     28 HAG          2.4380     4.9820     5.0570 ha         1 QV8       0.119000
     29 HAH          3.0510     3.1800     8.8810 ha         1 QV8       0.119000
     30 HAI          4.7810    -0.0610    -0.9100 ha         1 QV8       0.127000
     31 HAJ          5.9150    -0.0630     1.2720 ha         1 QV8       0.127000
     32 HAK          1.0060     3.0890     4.3890 ha         1 QV8       0.134500
     33 HAL          1.6250     1.2810     8.2210 ha         1 QV8       0.134500
     34 HAM          2.3240     0.0800    -1.0390 ha         1 QV8       0.152000
     35 HAN          4.6070     0.0760     3.3570 ha         1 QV8       0.151000
     36 HAO         -2.1110     1.6150     5.4400 ha         1 QV8       0.169000
     37 HAP         -2.0000     0.9920     1.2160 ha         1 QV8       0.178000
     38 HNAQ         0.2680     0.2300     6.5200 hn         1 QV8       0.449800
     39 SBA         -3.8920     1.7730     3.2190 s6         1 QV8       1.310100
@<TRIPOS>BOND
     1    21     1 2
     2     2    22 2
     3     3    39 1
     4    39     4 1
     5    39     5 1
     6     8     6 ar
     7     6     7 ar
     8     6    27 1
     9    11     7 ar
    10     7    28 1
    11    12     8 ar
    12     8    29 1
    13    10     9 ar
    14     9    13 ar
    15     9    30 1
    16    14    10 ar
    17    10    31 1
    18    18    11 ar
    19    11    32 1
    20    12    18 ar
    21    12    33 1
    22    23    13 ar
    23    13    34 1
    24    14    24 ar
    25    14    35 1
    26    20    15 ar
    27    15    19 ar
    28    15    36 1
    29    25    16 ar
    30    16    19 ar
    31    16    37 1
    32    17    18 1
    33    17    20 1
    34    17    38 1
    35    19    39 1
    36    26    20 ar
    37    23    21 1
    38    25    21 1
    39    22    24 1
    40    22    26 1
    41    24    23 ar
    42    26    25 ar
@<TRIPOS>SUBSTRUCTURE
     1 QV8         1 TEMP              0 ****  ****    0 ROOT
