@<TRIPOS>MOLECULE
QV8
   39    42     1     0     0
SMALL
bcc


@<TRIPOS>ATOM
      1 OAA          0.0000     0.0000     0.0000 o          1 QV8      -0.553100
      2 OAB          2.4200    -0.0080     4.6600 o          1 QV8      -0.561100
      3 OAC         -4.3830     1.1800     2.0250 o          1 QV8      -0.647200
      4 OAD         -3.9630     3.2790     3.0110 o          1 QV8      -0.647200
      5 OAE         -4.4500     1.5180     4.5010 o          1 QV8      -0.647200
      6 CAF          2.8260     4.1950     7.0100 ca         1 QV8      -0.183000
      7 CAG          2.2570     4.1690     5.7490 ca         1 QV8      -0.055000
      8 CAH          2.6000     3.1580     7.8960 ca         1 QV8      -0.055000
      9 CAI          4.1960     0.0000     0.0000 ca         1 QV8      -0.102000
     10 CAJ          4.8340     0.0000     1.2270 ca         1 QV8      -0.104000
     11 CAK          1.4550     3.1080     5.3750 ca         1 QV8      -0.187500
     12 CAL          1.8040     2.0920     7.5250 ca         1 QV8      -0.187500
     13 CAM          2.8170     0.0800    -0.0740 ca         1 QV8      -0.060000
     14 CAN          4.1010     0.0770     2.3990 ca         1 QV8      -0.059000
     15 CAO         -1.5590     1.3350     4.5510 ca         1 QV8       0.006000
     16 CAP         -1.4960     0.9850     2.1750 ca         1 QV8       0.054000
     17 NAQ          0.4160     0.9900     5.8860 nu         1 QV8      -0.237000
     18 CAR          1.2210     2.0670     6.2650 ca         1 QV8       0.079600
     19 CAS         -2.1880     1.3400     3.3250 ca         1 QV8      -0.082500
     20 CAT         -0.2140     0.9950     4.6500 ca         1 QV8      -0.006400
     21 CAU          0.5900     0.2390     1.0350 c          1 QV8       0.647300
     22 CAV          1.9130     0.2410     3.5830 c          1 QV8       0.647300
     23 CAW          2.0660     0.1530     1.0940 ca         1 QV8      -0.128600
     24 CAX          2.7140     0.1570     2.3420 ca         1 QV8      -0.130600
     25 CAY         -0.1590     0.6200     2.2530 ca         1 QV8      -0.191600
     26 CAZ          0.4940     0.6290     3.5000 ca         1 QV8      -0.142600
     27 HAF          3.4520     5.0290     7.3020 ha         1 QV8       0.093000
     28 HAG          2.4380     4.9820     5.0570 ha         1 QV8       0.089500
     29 HAH          3.0510     3.1800     8.8810 ha         1 QV8       0.089500
     30 HAI          4.7810    -0.0610    -0.9100 ha         1 QV8       0.099000
     31 HAJ          5.9150    -0.0630     1.2720 ha         1 QV8       0.099000
     32 HAK          1.0060     3.0890     4.3890 ha         1 QV8       0.113500
     33 HAL          1.6250     1.2810     8.2210 ha         1 QV8       0.113500
     34 HAM          2.3240     0.0800    -1.0390 ha         1 QV8       0.122000
     35 HAN          4.6070     0.0760     3.3570 ha         1 QV8       0.122000
     36 HAO         -2.1110     1.6150     5.4400 ha         1 QV8       0.136000
     37 HAP         -2.0000     0.9920     1.2160 ha         1 QV8       0.146000
     38 HNAQ         0.2680     0.2300     6.5200 hn         1 QV8       0.287800
     39 SBA         -3.8920     1.7730     3.2190 s6         1 QV8       1.023100
@<TRIPOS>BOND
     1     1    21 2   
     2     2    22 2   
     3     3    39 1   
     4     4    39 1   
     5     5    39 1   
     6     6     7 ar  
     7     6     8 ar  
     8     6    27 1   
     9     7    11 ar  
    10     7    28 1   
    11     8    12 ar  
    12     8    29 1   
    13     9    10 ar  
    14     9    13 ar  
    15     9    30 1   
    16    10    14 ar  
    17    10    31 1   
    18    11    18 ar  
    19    11    32 1   
    20    12    18 ar  
    21    12    33 1   
    22    13    23 ar  
    23    13    34 1   
    24    14    24 ar  
    25    14    35 1   
    26    15    19 ar  
    27    15    20 ar  
    28    15    36 1   
    29    16    19 ar  
    30    16    25 ar  
    31    16    37 1   
    32    17    18 1   
    33    17    20 1   
    34    17    38 1   
    35    19    39 1   
    36    20    26 ar  
    37    21    23 1   
    38    21    25 1   
    39    22    24 1   
    40    22    26 1   
    41    23    24 ar  
    42    25    26 ar  
@<TRIPOS>SUBSTRUCTURE
     1 QV8         1 TEMP              0 ****  ****    0 ROOT
