@<TRIPOS>MOLECULE
QVE
   27    28     1     0     0
SMALL
bcc


@<TRIPOS>ATOM
      1 O            0.0000     0.0000     0.0000 o          1 QVE      -0.883300
      2 C            1.2130     0.0000     0.0000 c          1 QVE       0.864100
      3 C10          1.9540     0.0000     1.2820 ca         1 QVE       0.410800
      4 N11          3.2750     0.0060     1.2640 nb         1 QVE      -0.584000
      5 C7           3.9890     0.0060     2.3890 ca         1 QVE       0.381600
      6 C2           5.4040     0.0120     2.3510 ca         1 QVE      -0.036700
      7 N            6.0730     0.0180     1.1300 nv         1 QVE      -0.530200
      8 C9           1.2390     0.0010     2.4860 ca         1 QVE      -0.321300
      9 C8           1.9220     0.0010     3.6860 ca         1 QVE       0.164100
     10 OB           1.2570     0.0010     4.8690 os         1 QVE      -0.269900
     11 CG          -0.1700     0.0020     4.8100 c3         1 QVE       0.084400
     12 CD          -0.7310     0.0030     6.2090 c          1 QVE       0.979600
     13 OE2          0.0160     0.0020     7.1590 o          1 QVE      -0.899800
     14 OE1         -2.0600     0.0020     6.4000 o          1 QVE      -0.899800
     15 C6           3.3350     0.0010     3.6470 ca         1 QVE      -0.194300
     16 C5           4.0950     0.0010     4.8250 ca         1 QVE      -0.041000
     17 C4           5.4550     0.0060     4.7580 ca         1 QVE      -0.174000
     18 C3           6.1120     0.0120     3.5320 ca         1 QVE      -0.136000
     19 H2           6.3300    -0.8470     0.6970 hn         1 QVE       0.257800
     20 H3           6.3230     0.8860     0.7000 hn         1 QVE       0.257800
     21 H4           0.1620    -0.1150     2.4760 ha         1 QVE       0.158000
     22 H5          -0.5090     0.8860     4.2850 h1         1 QVE       0.005700
     23 H6          -0.5100    -0.8830     4.2850 h1         1 QVE       0.005700
     24 H8           3.6000    -0.0040     5.7890 ha         1 QVE       0.122000
     25 H9           6.0350     0.0060     5.6740 ha         1 QVE       0.081000
     26 H10          7.1950     0.0160     3.5060 ha         1 QVE       0.080000
     27 OXT          1.8870    -0.0060    -1.1670 o          1 QVE      -0.883300
@<TRIPOS>BOND
     1     1     2 1   
     2     2     3 1   
     3     2    27 1   
     4     3     4 ar  
     5     3     8 ar  
     6     4     5 ar  
     7     5     6 ar  
     8     5    15 ar  
     9     6     7 1   
    10     6    18 ar  
    11     7    19 1   
    12     7    20 1   
    13     8     9 ar  
    14     8    21 1   
    15     9    10 1   
    16     9    15 ar  
    17    10    11 1   
    18    11    12 1   
    19    11    22 1   
    20    11    23 1   
    21    12    13 1   
    22    12    14 1   
    23    15    16 ar  
    24    16    17 ar  
    25    16    24 1   
    26    17    18 ar  
    27    17    25 1   
    28    18    26 1   
@<TRIPOS>SUBSTRUCTURE
     1 QVE         1 TEMP              0 ****  ****    0 ROOT
