@<TRIPOS>MOLECULE
QVR
   35    39     1     0     0
SMALL
bcc


@<TRIPOS>ATOM
      1 C24          0.0000     0.0000     0.0000 DU         1 QVR       0.031000
      2 C28          1.5060     0.0000     0.0000 c2         1 QVR      -0.084000
      3 C31          2.1620     0.0000     1.1350 c2         1 QVR      -0.142000
      4 C36          3.6680     0.0000     1.1350 DU         1 QVR       0.147000
      5 C38          5.5260     0.6950    -0.0230 c3         1 QVR       0.064000
      6 C39          5.4570     1.6540     1.1860 c3         1 QVR       0.005000
      7 C40          4.2070     1.1870     1.9650 c3         1 QVR      -0.007000
      8 C49          5.1820     1.9660    -2.1760 c2         1 QVR      -0.197000
      9 C50          7.2250     2.3580    -2.7900 c2         1 QVR      -0.222000
     10 C51          7.2810     1.6500    -1.5770 c2         1 QVR      -0.138000
     11 C53          9.5770     1.7400    -1.6510 c2         1 QVR       0.003000
     12 C55          8.4360     2.7360    -3.3930 c2         1 QVR       0.069000
     13 N47          5.9780     1.4120    -1.2180 na         1 QVR       0.283000
     14 N48          5.9160     2.5200    -3.0970 n2         1 QVR      -0.066000
     15 N52          8.4670     1.3650    -1.0490 n2         1 QVR      -0.117000
     16 N54          9.5740     2.4070    -2.7900 n2         1 QVR      -0.177000
     17 N57          8.4430     3.4350    -4.5880 nv         1 QVR       0.050000
     18 O37          4.1710     0.2260    -0.2000 os         1 QVR      -0.250000
     19 O41          6.6280     1.5260     1.9950 oh         1 QVR      -0.265000
     20 O42          4.5670     0.7560     3.2780 oh         1 QVR      -0.271000
     21 H1          -0.3610     0.6550     0.7830 ha         1 QVR       0.037000
     22 H30         -0.3610    -1.0060     0.1760 ha         1 QVR       0.037000
     23 H29         -0.3610     0.3500    -0.9590 ha         1 QVR       0.037000
     24 H28          0.8940     0.8740     0.1860 DU         1 QVR       0.013000
     25 H31          2.7740     0.8740     0.9480 DU         1 QVR       0.028000
     26 H61          4.0510    -0.9350     1.5260 ha         1 QVR       0.069000
     27 H62          6.1840    -0.1370     0.1960 h2         1 QVR       0.113000
     28 H44          5.3310     2.6760     0.8500 h1         1 QVR       0.058000
     29 H43          3.4710     1.9810     2.0080 h1         1 QVR       0.062000
     30 H58          4.0990     1.9480    -2.1720 h5         1 QVR       0.169000
     31 H56         10.5270     1.4920    -1.1940 h5         1 QVR       0.135000
     32 H59          7.9030     4.2720    -4.6810 hn         1 QVR       0.072500
     33 H60          9.0220     3.1260    -5.3440 hn         1 QVR       0.072500
     34 H46          6.8330     2.3590     2.3850 ho         1 QVR       0.191000
     35 H45          4.3130     1.4120     3.9060 ho         1 QVR       0.188000
@<TRIPOS>BOND
     1     1     2 1   
     2     1    21 1   
     3     1    22 1   
     4     1    23 1   
     5     1    24 1   
     6     2     3 1   
     7     2    24 1   
     8     3     4 1   
     9     3    25 1   
    10     4     7 1   
    11     4    18 1   
    12     4    25 1   
    13     4    26 1   
    14     5     6 1   
    15     5    13 1   
    16     5    18 1   
    17     5    27 1   
    18     6     7 1   
    19     6    19 1   
    20     6    28 1   
    21     7    20 1   
    22     7    29 1   
    23     8    13 1   
    24     8    14 1   
    25     8    30 1   
    26     9    10 1   
    27     9    12 1   
    28     9    14 1   
    29    10    13 1   
    30    10    15 1   
    31    11    15 1   
    32    11    16 1   
    33    11    31 1   
    34    12    16 1   
    35    12    17 1   
    36    17    32 1   
    37    17    33 1   
    38    19    34 1   
    39    20    35 1   
@<TRIPOS>SUBSTRUCTURE
     1 QVR         1 TEMP              0 ****  ****    0 ROOT
