@<TRIPOS>MOLECULE
molecule
   35    37     1     0     0
SMALL
bcc


@<TRIPOS>ATOM
      1 C24          0.0000     0.0000     0.0000 c3         1 QVR      -0.065900
      2 C28          1.5060     0.0000     0.0000 c2         1 QVR      -0.140200
      3 C31          2.1620     0.0000     1.1350 c2         1 QVR      -0.205200
      4 C36          3.6680     0.0000     1.1350 c3         1 QVR       0.170300
      5 C38          5.5260     0.6950    -0.0230 c3         1 QVR       0.258800
      6 C39          5.4570     1.6540     1.1860 c3         1 QVR       0.086100
      7 C40          4.2070     1.1870     1.9650 c3         1 QVR       0.094100
      8 C49          5.1820     1.9660    -2.1760 cc         1 QVR       0.430700
      9 C50          7.2250     2.3580    -2.7900 ca         1 QVR      -0.201200
     10 C51          7.2810     1.6500    -1.5770 ca         1 QVR       0.471800
     11 C53          9.5770     1.7400    -1.6510 ca         1 QVR       0.732900
     12 C55          8.4360     2.7360    -3.3930 ca         1 QVR       0.784200
     13 N47          5.9780     1.4120    -1.2180 na         1 QVR      -0.255000
     14 N48          5.9160     2.5200    -3.0970 nd         1 QVR      -0.587100
     15 N52          8.4670     1.3650    -1.0490 nb         1 QVR      -0.779000
     16 N54          9.5740     2.4070    -2.7900 nb         1 QVR      -0.823000
     17 N57          8.4430     3.4350    -4.5880 nv         1 QVR      -1.000500
     18 O37          4.1710     0.2260    -0.2000 os         1 QVR      -0.417600
     19 O41          6.6280     1.5260     1.9950 oh         1 QVR      -0.560800
     20 O42          4.5670     0.7560     3.2780 oh         1 QVR      -0.572800
     21 H1          -0.3610    -1.0180     0.0870 hc         1 QVR       0.043700
     22 H30         -0.3610     0.5840     0.8380 hc         1 QVR       0.043700
     23 H29         -0.3610     0.4340    -0.9250 hc         1 QVR       0.043700
     24 H28          2.0480    -0.0000    -0.9380 ha         1 QVR       0.142000
     25 H31          1.6210    -0.0000     2.0730 ha         1 QVR       0.138000
     26 H61          4.0510    -0.9350     1.5260 h1         1 QVR       0.085700
     27 H62          6.1840    -0.1370     0.1960 h2         1 QVR       0.111700
     28 H44          5.3310     2.6760     0.8500 h1         1 QVR       0.056700
     29 H43          3.4710     1.9810     2.0080 h1         1 QVR       0.052700
     30 H58          4.0990     1.9480    -2.1720 h5         1 QVR       0.087800
     31 H56         10.5270     1.4920    -1.1940 h5         1 QVR       0.062100
     32 H59          9.1940     4.0640    -4.7950 hn         1 QVR       0.448800
     33 H60          7.7050     3.3010    -5.2500 hn         1 QVR       0.448800
     34 H46          6.8700     2.3720     2.3340 ho         1 QVR       0.408000
     35 H45          4.1800     1.3320     3.9160 ho         1 QVR       0.403000
@<TRIPOS>BOND
     1    17    12 1
     2    12     9 ar
     3    12    16 ar
     4    14     9 1
     5    14     8 2
     6     9    10 ar
     7    16    11 ar
     8     8    13 1
     9    10    13 1
    10    10    15 ar
    11    11    15 ar
    12    13     5 1
    13     5     6 1
    14     5    18 1
    15     1     2 1
    16     6    19 1
    17     6     7 1
    18     3     2 2
    19     3     4 1
    20    18     4 1
    21     4     7 1
    22     7    20 1
    23     1    21 1
    24     1    22 1
    25     1    23 1
    26     2    24 1
    27     3    25 1
    28     4    26 1
    29     5    27 1
    30     6    28 1
    31     7    29 1
    32     8    30 1
    33    11    31 1
    34    17    32 1
    35    17    33 1
    36    19    34 1
    37    20    35 1
@<TRIPOS>SUBSTRUCTURE
     1 QVR         1 TEMP              0 ****  ****    0 ROOT
