@<TRIPOS>MOLECULE
QVS
   22    23     1     0     0
SMALL
bcc


@<TRIPOS>ATOM
      1 OB           0.0000     0.0000     0.0000 oh         1 QVS      -0.498100
      2 C8           1.3560     0.0000     0.0000 ca         1 QVS       0.103100
      3 C9           2.0670     0.0000     1.1850 ca         1 QVS      -0.234300
      4 C10          3.4680     0.0010     1.1500 ca         1 QVS       0.371800
      5 C            4.2220    -0.0000     2.4250 c          1 QVS       0.863100
      6 O            3.6270    -0.0010     3.4830 o          1 QVS      -0.872800
      7 N11          4.1310     0.0010     0.0090 nb         1 QVS      -0.538000
      8 C7           3.5010     0.0010    -1.1640 ca         1 QVS       0.329600
      9 C6           2.0830    -0.0040    -1.2120 ca         1 QVS      -0.132300
     10 C5           1.4290    -0.0100    -2.4510 ca         1 QVS      -0.156000
     11 C4           2.1550    -0.0140    -3.6050 ca         1 QVS      -0.067000
     12 C3           3.5450    -0.0140    -3.5760 ca         1 QVS      -0.255000
     13 C2           4.2270     0.0020    -2.3790 ca         1 QVS       0.016300
     14 N            5.6190     0.0030    -2.3630 nv         1 QVS      -0.422200
     15 H1          -0.3140     0.7420     0.4890 ho         1 QVS       0.395000
     16 H2           1.5490    -0.1180     2.1290 ha         1 QVS       0.138000
     17 H4           0.3470    -0.0100    -2.4920 ha         1 QVS       0.105000
     18 H5           1.6410    -0.0270    -4.5580 ha         1 QVS       0.080000
     19 H6           4.0990    -0.0180    -4.5070 ha         1 QVS       0.096000
     20 H7           6.1300    -0.0010    -3.2240 hn         1 QVS       0.273800
     21 H8           6.1100     0.0120    -1.4910 hn         1 QVS       0.273800
     22 OXT          5.5690    -0.0000     2.4100 o          1 QVS      -0.872800
@<TRIPOS>BOND
     1     1     2 1   
     2     1    15 1   
     3     2     3 ar  
     4     2     9 ar  
     5     3     4 ar  
     6     3    16 1   
     7     4     5 1   
     8     4     7 ar  
     9     5     6 1   
    10     5    22 1   
    11     7     8 ar  
    12     8     9 ar  
    13     8    13 ar  
    14     9    10 ar  
    15    10    11 ar  
    16    10    17 1   
    17    11    12 ar  
    18    11    18 1   
    19    12    13 ar  
    20    12    19 1   
    21    13    14 1   
    22    14    20 1   
    23    14    21 1   
@<TRIPOS>SUBSTRUCTURE
     1 QVS         1 TEMP              0 ****  ****    0 ROOT
