@<TRIPOS>MOLECULE
molecule
   22    23     1     0     0
SMALL
bcc


@<TRIPOS>ATOM
      1 OB           0.0000     0.0000     0.0000 oh         1 QVS      -0.522100
      2 C8           1.3560     0.0000     0.0000 ca         1 QVS       0.097100
      3 C9           2.0670     0.0000     1.1850 ca         1 QVS      -0.258300
      4 C10          3.4680     0.0010     1.1500 ca         1 QVS       0.423800
      5 C            4.2220    -0.0000     2.4250 c          1 QVS       0.781100
      6 O            3.6270    -0.0010     3.4830 o          1 QVS      -0.818300
      7 N11          4.1310     0.0010     0.0090 nb         1 QVS      -0.656000
      8 C7           3.5010     0.0010    -1.1640 ca         1 QVS       0.375600
      9 C6           2.0830    -0.0040    -1.2120 ca         1 QVS      -0.138300
     10 C5           1.4290    -0.0100    -2.4510 ca         1 QVS      -0.170000
     11 C4           2.1550    -0.0140    -3.6050 ca         1 QVS      -0.100000
     12 C3           3.5450    -0.0140    -3.5760 ca         1 QVS      -0.263000
     13 C2           4.2270     0.0020    -2.3790 ca         1 QVS       0.173300
     14 N            5.6190     0.0030    -2.3630 nv         1 QVS      -0.901200
     15 H1          -0.3140     0.7420     0.4890 ho         1 QVS       0.413000
     16 H2           1.5490    -0.1180     2.1290 ha         1 QVS       0.161000
     17 H4           0.3470    -0.0100    -2.4920 ha         1 QVS       0.126000
     18 H5           1.6410    -0.0270    -4.5580 ha         1 QVS       0.107000
     19 H6           4.0990    -0.0180    -4.5070 ha         1 QVS       0.112000
     20 H7           6.1300    -0.0010    -3.2240 hn         1 QVS       0.438300
     21 H8           6.1100     0.0120    -1.4910 hn         1 QVS       0.438300
     22 OXT          5.5690    -0.0000     2.4100 o          1 QVS      -0.818300
@<TRIPOS>BOND
     1     1     2 1
     2     2     3 ar
     3     2     9 ar
     4    10     9 ar
     5    10    11 ar
     6     3     4 ar
     7     9     8 ar
     8    11    12 ar
     9     4     7 ar
    10     4     5 1
    11     8     7 ar
    12     8    13 ar
    13    12    13 ar
    14     6     5 1
    15    13    14 1
    16     1    15 1
    17     3    16 1
    18    10    17 1
    19    11    18 1
    20    12    19 1
    21    14    20 1
    22    14    21 1
    23     5    22 1
@<TRIPOS>SUBSTRUCTURE
     1 QVS         1 TEMP              0 ****  ****    0 ROOT
