@<TRIPOS>MOLECULE
molecule
   50    54     1     0     0
SMALL
bcc


@<TRIPOS>ATOM
      1 C2           0.0000     0.0000     0.0000 ca         1 QWI      -0.131000
      2 C3           1.3820     0.0000     0.0000 ca         1 QWI      -0.125500
      3 C4           2.0730     0.0000     1.1980 ca         1 QWI      -0.124500
      4 C5           1.3820     0.0010     2.3940 ca         1 QWI      -0.078300
      5 C6          -0.0000     0.0020     2.3940 ca         1 QWI      -0.124500
      6 C7          -0.6920     0.0010     1.1970 ca         1 QWI      -0.125500
      7 C8           2.1350    -0.0000     3.7000 c3         1 QWI      -0.026400
      8 C9           1.7640    -1.2510     4.5030 c3         1 QWI      -0.116400
      9 C10          2.4850    -1.2160     5.8530 c3         1 QWI       0.149800
     10 N11          2.0940    -0.0060     6.5870 n7         1 QWI      -0.808200
     11 C15          1.7620     1.2450     4.5070 c3         1 QWI      -0.101400
     12 C17          2.8690     2.4290     7.9990 c3         1 QWI       0.173800
     13 C18          2.0990     2.4420     6.6760 c3         1 QWI      -0.069900
     14 C20          4.7100     1.2250     6.9800 c3         1 QWI       0.173800
     15 C21          3.9950     1.2030     5.6280 c3         1 QWI      -0.069900
     16 C22          5.0380     2.5450     8.8990 ca         1 QWI       0.719200
     17 N23          4.4220     2.6440    10.0720 nb         1 QWI      -0.808000
     18 C24          5.1070     2.7530    11.1960 ca         1 QWI       0.724900
     19 N25          6.4230     2.7710    11.2230 nb         1 QWI      -0.777000
     20 C26          7.1250     2.6780    10.0980 ca         1 QWI       0.454800
     21 C70          2.4820     1.2070     5.8560 c3         1 QWI       0.164200
     22 N27          8.4610     2.6660     9.7890 na         1 QWI      -0.360000
     23 C29          8.5660     2.5450     8.4350 cc         1 QWI       0.414700
     24 N30          7.3800     2.4830     7.9010 nd         1 QWI      -0.576100
     25 C31          6.4430     2.5590     8.8760 ca         1 QWI      -0.172200
     26 N1           4.3120     2.4260     7.7260 nh         1 QWI      -0.682300
     27 H2          -0.5420    -0.0000    -0.9380 ha         1 QWI       0.129000
     28 H3           1.9240    -0.0010    -0.9380 ha         1 QWI       0.129000
     29 H7          -1.7750     0.0010     1.1970 ha         1 QWI       0.129000
     30 H4           3.1560    -0.0000     1.1980 ha         1 QWI       0.129500
     31 H6          -0.5420     0.0030     3.3320 ha         1 QWI       0.129500
     32 H8           3.2010     0.0010     3.5080 hc         1 QWI       0.060700
     33 H91C         0.6930    -1.2690     4.6670 hc         1 QWI       0.048700
     34 H92C         2.0670    -2.1350     3.9550 hc         1 QWI       0.048700
     35 H151         0.6910     1.2620     4.6700 hc         1 QWI       0.051200
     36 H152         2.0650     2.1310     3.9620 hc         1 QWI       0.051200
     37 H101         3.5560    -1.2060     5.6880 h1         1 QWI       0.057200
     38 H102         2.2110    -2.0910     6.4300 h1         1 QWI       0.057200
     39 H11          1.1030    -0.0070     6.7290 hn         1 QWI       0.354800
     40 H172         2.6070     1.5390     8.5590 h1         1 QWI       0.063450
     41 H181         1.0350     2.4260     6.8780 hc         1 QWI       0.054450
     42 H182         2.3530     3.3370     6.1200 hc         1 QWI       0.054450
     43 H201         5.7810     1.2400     6.8200 h1         1 QWI       0.063450
     44 H202         4.4360     0.3430     7.5460 h1         1 QWI       0.063450
     45 H211         4.2760     2.0810     5.0570 hc         1 QWI       0.054450
     46 H212         4.2760     0.3080     5.0860 hc         1 QWI       0.054450
     47 H24          4.5650     2.8320    12.1310 h5         1 QWI       0.061100
     48 H27          9.2200     2.7330    10.4390 hn         1 QWI       0.313700
     49 H29          9.4980     2.5070     7.8840 h5         1 QWI       0.079800
     50 H171         2.6130     3.3110     8.5730 h1         1 QWI       0.063450
@<TRIPOS>BOND
     1     1     2 ar
     2     1     6 ar
     3     2     3 ar
     4     3     4 ar
     5     4     5 ar
     6     4     7 1
     7     5     6 ar
     8     7     8 1
     9     7    11 1
    10     8     9 1
    11     9    10 1
    12    10    21 1
    13    11    21 1
    14    12    13 1
    15    12    26 1
    16    13    21 1
    17    14    15 1
    18    14    26 1
    19    15    21 1
    20    16    17 ar
    21    16    25 ar
    22    16    26 1
    23    17    18 ar
    24    18    19 ar
    25    19    20 ar
    26    20    22 1
    27    20    25 ar
    28    22    23 1
    29    23    24 2
    30    24    25 1
    31     1    27 1
    32     2    28 1
    33     6    29 1
    34     3    30 1
    35     5    31 1
    36     7    32 1
    37     8    33 1
    38     8    34 1
    39    11    35 1
    40    11    36 1
    41     9    37 1
    42     9    38 1
    43    10    39 1
    44    12    50 1
    45    12    40 1
    46    13    41 1
    47    13    42 1
    48    14    43 1
    49    14    44 1
    50    15    45 1
    51    15    46 1
    52    18    47 1
    53    22    48 1
    54    23    49 1
@<TRIPOS>SUBSTRUCTURE
     1 QWI         1 TEMP              0 ****  ****    0 ROOT
