@<TRIPOS>MOLECULE
QWI
   50    54     1     0     0
SMALL
bcc


@<TRIPOS>ATOM
      1 C2           0.0000     0.0000     0.0000 ca         1 QWI      -0.104000
      2 C3           1.3820     0.0000     0.0000 ca         1 QWI      -0.097500
      3 C4           2.0730     0.0000     1.1980 ca         1 QWI      -0.099000
      4 C5           1.3820     0.0010     2.3940 ca         1 QWI      -0.085300
      5 C6          -0.0000     0.0020     2.3940 ca         1 QWI      -0.099000
      6 C7          -0.6920     0.0010     1.1970 ca         1 QWI      -0.097500
      7 C8           2.1350    -0.0000     3.7000 c3         1 QWI       0.002600
      8 C9           1.7640    -1.2510     4.5030 c3         1 QWI      -0.061400
      9 C10          2.4850    -1.2160     5.8530 c3         1 QWI       0.132800
     10 N11          2.0940    -0.0060     6.5870 n7         1 QWI      -0.578200
     11 C15          1.7620     1.2450     4.5070 c3         1 QWI      -0.053400
     12 C17          2.8690     2.4290     7.9990 c3         1 QWI       0.132800
     13 C18          2.0990     2.4420     6.6760 c3         1 QWI      -0.026900
     14 C20          4.7100     1.2250     6.9800 c3         1 QWI       0.132800
     15 C21          3.9950     1.2030     5.6280 c3         1 QWI      -0.026900
     16 C22          5.0380     2.5450     8.8990 ca         1 QWI       0.594200
     17 N23          4.4220     2.6440    10.0720 nb         1 QWI      -0.708000
     18 C24          5.1070     2.7530    11.1960 ca         1 QWI       0.669900
     19 N25          6.4230     2.7710    11.2230 nb         1 QWI      -0.652000
     20 C26          7.1250     2.6780    10.0980 ca         1 QWI       0.228800
     21 C70          2.4820     1.2070     5.8560 c3         1 QWI       0.100200
     22 N27          8.4610     2.6660     9.7890 na         1 QWI       0.176000
     23 C29          8.5660     2.5450     8.4350 cc         1 QWI       0.224700
     24 N30          7.3800     2.4830     7.9010 nd         1 QWI      -0.481100
     25 C31          6.4430     2.5590     8.8760 ca         1 QWI      -0.201200
     26 N1           4.3120     2.4260     7.7260 nh         1 QWI      -0.432300
     27 H2          -0.5420    -0.0000    -0.9380 ha         1 QWI       0.102000
     28 H3           1.9240    -0.0010    -0.9380 ha         1 QWI       0.102000
     29 H7          -1.7750     0.0010     1.1970 ha         1 QWI       0.102000
     30 H4           3.1560    -0.0000     1.1980 ha         1 QWI       0.106500
     31 H6          -0.5420     0.0030     3.3320 ha         1 QWI       0.106500
     32 H8           3.2010     0.0010     3.5080 hc         1 QWI       0.040700
     33 H91C         0.6930    -1.2690     4.6670 hc         1 QWI       0.023700
     34 H92C         2.0670    -2.1350     3.9550 hc         1 QWI       0.023700
     35 H151         0.6910     1.2620     4.6700 hc         1 QWI       0.028200
     36 H152         2.0650     2.1310     3.9620 hc         1 QWI       0.028200
     37 H101         3.5560    -1.2060     5.6880 h1         1 QWI       0.028200
     38 H102         2.2110    -2.0910     6.4300 h1         1 QWI       0.028200
     39 H11          1.1030    -0.0070     6.7290 hn         1 QWI       0.259800
     40 H172         2.6070     1.5390     8.5590 h1         1 QWI       0.037450
     41 H181         1.0350     2.4260     6.8780 hc         1 QWI       0.028450
     42 H182         2.3530     3.3370     6.1200 hc         1 QWI       0.028450
     43 H201         5.7810     1.2400     6.8200 h1         1 QWI       0.037450
     44 H202         4.4360     0.3430     7.5460 h1         1 QWI       0.037450
     45 H211         4.2760     2.0810     5.0570 hc         1 QWI       0.028450
     46 H212         4.2760     0.3080     5.0860 hc         1 QWI       0.028450
     47 H24          4.5650     2.8320    12.1310 h5         1 QWI      -0.001900
     48 H27          9.2200     2.7330    10.4390 hn         1 QWI       0.133700
     49 H29          9.4980     2.5070     7.8840 h5         1 QWI       0.031800
     50 H171         2.6130     3.3110     8.5730 h1         1 QWI       0.037450
@<TRIPOS>BOND
     1     1     2 ar  
     2     1     6 ar  
     3     1    27 1   
     4     2     3 ar  
     5     2    28 1   
     6     3     4 ar  
     7     3    30 1   
     8     4     5 ar  
     9     4     7 1   
    10     5     6 ar  
    11     5    31 1   
    12     6    29 1   
    13     7     8 1   
    14     7    11 1   
    15     7    32 1   
    16     8     9 1   
    17     8    33 1   
    18     8    34 1   
    19     9    10 1   
    20     9    37 1   
    21     9    38 1   
    22    10    21 1   
    23    10    39 1   
    24    11    21 1   
    25    11    35 1   
    26    11    36 1   
    27    12    13 1   
    28    12    26 1   
    29    12    40 1   
    30    12    50 1   
    31    13    21 1   
    32    13    41 1   
    33    13    42 1   
    34    14    15 1   
    35    14    26 1   
    36    14    43 1   
    37    14    44 1   
    38    15    21 1   
    39    15    45 1   
    40    15    46 1   
    41    16    17 ar  
    42    16    25 ar  
    43    16    26 1   
    44    17    18 ar  
    45    18    19 ar  
    46    18    47 1   
    47    19    20 ar  
    48    20    22 1   
    49    20    25 ar  
    50    22    23 1   
    51    22    48 1   
    52    23    24 2   
    53    23    49 1   
    54    24    25 1   
@<TRIPOS>SUBSTRUCTURE
     1 QWI         1 TEMP              0 ****  ****    0 ROOT
