@<TRIPOS>MOLECULE
QWS
   47    49     1     0     0
SMALL
bcc


@<TRIPOS>ATOM
      1 N1           0.0000     0.0000     0.0000 na         1 QWS       0.928300
      2 N2           1.2850     0.0000     0.0000 nc         1 QWS      -0.610800
      3 C3           1.7420     0.0000     1.2380 cd         1 QWS       0.135800
      4 C4           0.6140    -0.0020     2.1000 cd         1 QWS      -0.220700
      5 C5          -0.4680    -0.0010     1.2780 cc         1 QWS      -0.338300
      6 N6           0.6170    -0.0020     3.5030 ns         1 QWS       0.101900
      7 C7          -0.5500    -0.0030     4.1790 c          1 QWS       0.273100
      8 N8          -0.5480    -0.0030     5.5270 nz         1 QWS       0.226600
      9 O9          -1.6040    -0.0030     3.5730 o          1 QWS      -0.521100
     10 C10          3.1580    -0.0010     1.6490 c          1 QWS       0.325600
     11 N11          4.1310     0.0000     0.7160 nz         1 QWS       0.216600
     12 O12          3.4490    -0.0010     2.8290 o          1 QWS      -0.502100
     13 C13         -0.8010     0.0060    -1.1460 ca         1 QWS      -0.344200
     14 C14         -1.8500     0.8910    -1.2560 ca         1 QWS       0.011000
     15 C15         -2.6500     0.9090    -2.3950 ca         1 QWS      -0.138000
     16 C16         -2.4190     0.0540    -3.4300 ca         1 QWS       0.037000
     17 C17         -0.5370    -0.8910    -2.2040 ca         1 QWS       0.091000
     18 C18         -1.3580    -0.8640    -3.3580 ca         1 QWS      -0.096000
     19 C19         -1.0970    -1.7570    -4.4120 ca         1 QWS      -0.025000
     20 C20         -0.0610    -2.6340    -4.3130 ca         1 QWS      -0.205000
     21 C21          0.7490    -2.6620    -3.1750 ca         1 QWS       0.246100
     22 C22          0.5260    -1.8050    -2.1330 ca         1 QWS      -0.253000
     23 O23          1.7760    -3.5490    -3.1030 os         1 QWS      -0.314900
     24 C24          2.0360    -4.3340    -4.2690 c3         1 QWS       0.167100
     25 C25          3.4990    -4.7820    -4.2660 c3         1 QWS      -0.014100
     26 C26          1.1260    -5.5650    -4.2700 c3         1 QWS      -0.014100
     27 H1          -1.5080    -0.0010     1.5820 h4         1 QWS       0.219000
     28 H2           1.4840     0.0340     4.0020 hn         1 QWS       0.191500
     29 H3          -0.0760    -0.8210     5.8600 hn         1 QWS       0.250467
     30 H4          -0.0760     0.8130     5.8610 hn         1 QWS       0.250467
     31 H5           5.0250    -0.0110     1.1660 hn         1 QWS       0.255467
     32 H6           4.0390    -0.8110     0.1360 hn         1 QWS       0.255467
     33 H7          -2.0550     1.5810    -0.4460 ha         1 QWS       0.106000
     34 H8          -3.4700     1.6140    -2.4590 ha         1 QWS       0.133000
     35 H9          -3.0520     0.0830    -4.3080 ha         1 QWS       0.125000
     36 H10         -1.7080    -1.7620    -5.3060 ha         1 QWS       0.125000
     37 H11         -0.0930    -2.9410    -5.3510 ha         1 QWS       0.160000
     38 H12          1.1060    -2.1940    -1.3050 ha         1 QWS       0.123000
     39 H13          1.8420    -3.7410    -5.1550 h1         1 QWS       0.023700
     40 H14          4.1420    -3.9140    -4.1860 hc         1 QWS       0.018533
     41 H15          3.7170    -5.3100    -5.1860 hc         1 QWS       0.018533
     42 H16          3.6740    -5.4390    -3.4220 hc         1 QWS       0.018533
     43 H17          1.0170    -5.9330    -3.2570 hc         1 QWS       0.018533
     44 H18          1.5650    -6.3380    -4.8890 hc         1 QWS       0.018533
     45 H19          0.1540    -5.2950    -4.6630 hc         1 QWS       0.018533
     46 H83         -1.4910     0.0120     5.8620 hn         1 QWS       0.250467
     47 H113         4.1010     0.8600     0.2040 hn         1 QWS       0.255467
@<TRIPOS>BOND
     1     1     2 1   
     2     1     5 1   
     3     1    13 1   
     4     2     3 2   
     5     3     4 1   
     6     3    10 1   
     7     4     5 2   
     8     4     6 1   
     9     5    27 1   
    10     6     7 1   
    11     6    28 1   
    12     7     8 1   
    13     7     9 2   
    14     8    29 1   
    15     8    30 1   
    16     8    46 1   
    17    10    11 1   
    18    10    12 2   
    19    11    31 1   
    20    11    32 1   
    21    11    47 1   
    22    13    14 ar  
    23    13    17 ar  
    24    14    15 ar  
    25    14    33 1   
    26    15    16 ar  
    27    15    34 1   
    28    16    18 ar  
    29    16    35 1   
    30    17    18 ar  
    31    17    22 ar  
    32    18    19 ar  
    33    19    20 ar  
    34    19    36 1   
    35    20    21 ar  
    36    20    37 1   
    37    21    22 ar  
    38    21    23 1   
    39    22    38 1   
    40    23    24 1   
    41    24    25 1   
    42    24    26 1   
    43    24    39 1   
    44    25    40 1   
    45    25    41 1   
    46    25    42 1   
    47    26    43 1   
    48    26    44 1   
    49    26    45 1   
@<TRIPOS>SUBSTRUCTURE
     1 QWS         1 TEMP              0 ****  ****    0 ROOT
