@<TRIPOS>MOLECULE
QX
   18    19     1     0     0
SMALL
bcc


@<TRIPOS>ATOM
      1 N1         -0.0470    0.2470   -0.0360 nb        1 QX      -0.642000
      2 C2          1.2500    0.0060   -0.0810 ca        1 QX       0.293500
      3 C3          1.9940   -0.3530    1.1250 ca        1 QX       0.320900
      4 N4          1.4410   -0.4600    2.3140 nb        1 QX      -0.671000
      5 C5         -0.6100   -0.3010    3.6330 ca        1 QX      -0.157300
      6 C6         -1.9600   -0.0550    3.7040 ca        1 QX      -0.158000
      7 C7         -2.6900    0.2930    2.5470 ca        1 QX      -0.148000
      8 C8         -2.0670    0.3920    1.3260 ca        1 QX      -0.162300
      9 C9          0.0730   -0.2090    2.3850 ca        1 QX       0.260300
     10 C10        -0.6670    0.1440    1.2050 ca        1 QX       0.295300
     11 C11         2.0730    0.0820   -1.3910 c         1 QX       0.828100
     12 O12         2.6090    1.1870   -1.6470 o         1 QX      -0.797800
     13 O13         2.1740   -0.9830   -2.0470 o         1 QX      -0.797800
     14 H3          3.0780   -0.5450    1.0380 h4        1 QX       0.033100
     15 H5         -0.0410   -0.5720    4.5350 ha        1 QX       0.132000
     16 H6         -2.4860   -0.1260    4.6660 ha        1 QX       0.114000
     17 H7         -3.7690    0.4840    2.6350 ha        1 QX       0.115000
     18 H8         -2.6370    0.6630    0.4240 ha        1 QX       0.141000
@<TRIPOS>BOND
     1    1    2 ar  
     2    1   10 ar  
     3    2    3 ar  
     4    2   11 1   
     5    3    4 ar  
     6    3   14 1   
     7    4    9 ar  
     8    5    6 ar  
     9    5    9 ar  
    10    5   15 1   
    11    6    7 ar  
    12    6   16 1   
    13    7    8 ar  
    14    7   17 1   
    15    8   10 ar  
    16    8   18 1   
    17    9   10 ar  
    18   11   12 1   
    19   11   13 1   
@<TRIPOS>SUBSTRUCTURE
     1 QX          1 TEMP              0 ****  ****    0 ROOT
