@<TRIPOS>MOLECULE
molecule
   18    19     1     0     0
SMALL
bcc


@<TRIPOS>ATOM
      1 N1           0.0000     0.0000     0.0000 nb         1 QX       -0.567000
      2 C2           1.3450     0.0000     0.0000 ca         1 QX        0.314500
      3 C3           2.0630     0.0000     1.1670 ca         1 QX        0.330900
      4 N4           1.4560     0.0010     2.3670 nb         1 QX       -0.694000
      5 C5          -0.5710     0.0020     3.6030 ca         1 QX       -0.172300
      6 C6          -1.9630     0.0020     3.6530 ca         1 QX       -0.145000
      7 C7          -2.6900     0.0020     2.4720 ca         1 QX       -0.153000
      8 C8          -2.0170     0.0010     1.2510 ca         1 QX       -0.151300
      9 C9           0.1120     0.0010     2.3890 ca         1 QX        0.279300
     10 C10         -0.6260     0.0010     1.1910 ca         1 QX        0.278300
     11 C11          1.9970    -0.0010    -1.2950 c          1 QX        0.760100
     12 O12          3.2200    -0.0020    -1.4860 o          1 QX       -0.811800
     13 O13          1.1090    -0.0030    -2.3290 o          1 QX       -0.811800
     14 H3           3.1280    -0.0000     1.3630 h4         1 QX        0.036100
     15 H5          -0.0070     0.0020     4.5280 ha         1 QX        0.129000
     16 H6          -2.4740     0.0030     4.6080 ha         1 QX        0.116000
     17 H7          -3.7730     0.0020     2.4980 ha         1 QX        0.118000
     18 H8          -2.5880     0.0010     0.3300 ha         1 QX        0.144000
@<TRIPOS>BOND
     1     1     2 ar
     2     1    10 ar
     3     2     3 ar
     4     2    11 1
     5     3     4 ar
     6     3    14 1
     7     4     9 ar
     8     5     6 ar
     9     5     9 ar
    10     5    15 1
    11     6     7 ar
    12     6    16 1
    13     7     8 ar
    14     7    17 1
    15     8    10 ar
    16     8    18 1
    17     9    10 ar
    18    11    12 1
    19    11    13 1
@<TRIPOS>SUBSTRUCTURE
     1 QX          1 TEMP              0 ****  ****    0 ROOT
