@<TRIPOS>MOLECULE
QY9
   18    18     1     0     0
SMALL
bcc


@<TRIPOS>ATOM
      1 CAA        -0.0300   -0.1380   -0.1490 c3        1 QY9     -0.151100
      2 OAB         2.0120   -0.7630    1.0590 o         1 QY9     -0.522000
      3 CAC         6.3280    0.3770   -1.0510 ca        1 QY9     -0.139000
      4 CAD         5.6970   -0.7940   -0.6340 ca        1 QY9     -0.116000
      5 CAE         5.5710    1.5020   -1.3820 ca        1 QY9     -0.116000
      6 CAF         4.3060   -0.8550   -0.5470 ca        1 QY9     -0.135000
      7 CAG         4.1820    1.4680   -1.2960 ca        1 QY9     -0.135000
      8 OAH         2.1670    0.2790   -0.9340 os        1 QY9     -0.371200
      9 CAI         1.4340   -0.2630    0.0980 c         1 QY9      0.640100
     10 CAJ         3.5600    0.2800   -0.8830 ca        1 QY9      0.106100
     11 HAA        -0.2340    0.3150   -1.1490 hc        1 QY9      0.078367
     12 HAAA       -0.4920   -1.1540   -0.0970 hc        1 QY9      0.078367
     13 HAAB       -0.4740    0.5080    0.6480 hc        1 QY9      0.078367
     14 HAD         6.2950   -1.6780   -0.3680 ha        1 QY9      0.135500
     15 HAE         6.0730    2.4250   -1.7090 ha        1 QY9      0.135500
     16 HAF         3.8000   -1.7690   -0.2020 ha        1 QY9      0.150500
     17 HAG         3.5720    2.3440   -1.5550 ha        1 QY9      0.150500
     18 HAC         7.4250    0.4150   -1.1180 ha        1 QY9      0.134000
@<TRIPOS>BOND
     1    1    9 1   
     2    1   11 1   
     3    1   12 1   
     4    1   13 1   
     5    2    9 2   
     6    3    4 ar  
     7    3    5 ar  
     8    3   18 1   
     9    4    6 ar  
    10    4   14 1   
    11    5    7 ar  
    12    5   15 1   
    13    6   10 ar  
    14    6   16 1   
    15    7   10 ar  
    16    7   17 1   
    17    8    9 1   
    18    8   10 1   
@<TRIPOS>SUBSTRUCTURE
     1 QY9         1 TEMP              0 ****  ****    0 ROOT
