@<TRIPOS>MOLECULE
molecule
   18    18     1     0     0
SMALL
bcc


@<TRIPOS>ATOM
      1 CAA          0.0000     0.0000     0.0000 c3         1 QY9      -0.138100
      2 OAB          2.1110     0.0000     1.0460 o          1 QY9      -0.528000
      3 CAC          6.2860     0.3160    -0.9560 ca         1 QY9      -0.127000
      4 CAD          5.6720    -0.8910    -0.6730 ca         1 QY9      -0.117000
      5 CAE          5.5270     1.4160    -1.3080 ca         1 QY9      -0.117000
      6 CAF          4.2960    -0.9980    -0.7420 ca         1 QY9      -0.126000
      7 CAG          4.1510     1.3130    -1.3780 ca         1 QY9      -0.126000
      8 OAH          2.1780    -0.0000    -1.1630 os         1 QY9      -0.345200
      9 CAI          1.5060     0.0000     0.0000 c          1 QY9       0.626100
     10 CAJ          3.5310     0.1050    -1.0950 ca         1 QY9       0.104100
     11 HAA         -0.3610    -0.0990     1.0170 hc         1 QY9       0.071367
     12 HAAA        -0.3610    -0.8310    -0.5940 hc         1 QY9       0.071367
     13 HAAB        -0.3610     0.9300    -0.4230 hc         1 QY9       0.071367
     14 HAD          6.2690    -1.7510    -0.3980 ha         1 QY9       0.134500
     15 HAE          6.0110     2.3590    -1.5290 ha         1 QY9       0.134500
     16 HAF          3.8140    -1.9430    -0.5200 ha         1 QY9       0.140000
     17 HAG          3.5560     2.1760    -1.6530 ha         1 QY9       0.140000
     18 HAC          7.3650     0.3980    -0.9020 ha         1 QY9       0.132000
@<TRIPOS>BOND
     1     1     9 1
     2     2     9 2
     3     3     4 ar
     4     3     5 ar
     5     4     6 ar
     6     5     7 ar
     7     6    10 ar
     8     7    10 ar
     9     8     9 1
    10     8    10 1
    11     1    11 1
    12     1    12 1
    13     1    13 1
    14     3    18 1
    15     4    14 1
    16     5    15 1
    17     6    16 1
    18     7    17 1
@<TRIPOS>SUBSTRUCTURE
     1 QY9         1 TEMP              0 ****  ****    0 ROOT
