@<TRIPOS>MOLECULE
molecule
   41    43     1     0     0
SMALL
bcc


@<TRIPOS>ATOM
      1 C1           0.0000     0.0000     0.0000 ca         1 QYD      -0.118000
      2 C2           1.3820     0.0000     0.0000 ca         1 QYD      -0.125500
      3 C3           2.0730     0.0000     1.1970 ca         1 QYD      -0.112500
      4 C4           1.3830    -0.0010     2.3940 ca         1 QYD      -0.085300
      5 C5           0.0000     0.0010     2.3940 ca         1 QYD      -0.112500
      6 C6          -0.6910    -0.0010     1.1970 ca         1 QYD      -0.125500
      7 C7           2.1370    -0.0010     3.6990 c3         1 QYD       0.055700
      8 C8           1.7690     1.2490     4.5060 c3         1 QYD       0.105000
      9 N9           2.4550     1.2140     5.7980 n          1 QYD      -0.507800
     10 C10          2.1410     0.1800     6.7830 c3         1 QYD       0.117000
     11 C11          2.5510    -1.1900     6.2340 c3         1 QYD      -0.011300
     12 S12          1.6830    -1.4750     4.6630 ss         1 QYD      -0.323200
     13 C13          3.3860     2.1470     6.0830 c          1 QYD       0.786100
     14 O14          3.8900     2.1840     7.1880 o          1 QYD      -0.636100
     15 N15          3.7580     3.0380     5.1420 ns         1 QYD      -0.495100
     16 C16          4.8030     3.9330     5.4010 ca         1 QYD       0.119600
     17 C17          4.7750     5.2090     4.8530 ca         1 QYD      -0.160000
     18 C18          5.8070     6.0900     5.1100 ca         1 QYD      -0.049500
     19 C19          6.8660     5.7040     5.9110 ca         1 QYD      -0.181200
     20 C20          6.8950     4.4330     6.4570 ca         1 QYD      -0.049500
     21 C21          5.8640     3.5490     6.2090 ca         1 QYD      -0.160000
     22 N22          7.9700     6.6510     6.1850 no         1 QYD       0.297200
     23 O23          7.9450     7.7700     5.7030 o          1 QYD      -0.209500
     24 O24          8.9030     6.3110     6.8900 o          1 QYD      -0.209500
     25 H1          -0.5420    -0.0000    -0.9380 ha         1 QYD       0.134000
     26 H2           1.9240     0.0000    -0.9380 ha         1 QYD       0.135000
     27 H6          -1.7740    -0.0000     1.1970 ha         1 QYD       0.135000
     28 H3           3.1570    -0.0000     1.1970 ha         1 QYD       0.136500
     29 H5          -0.5410     0.0000     3.3320 ha         1 QYD       0.136500
     30 H7           3.2030    -0.0080     3.5080 h1         1 QYD       0.078700
     31 H81C         0.6980     1.2700     4.6680 h1         1 QYD       0.060700
     32 H82C         2.0740     2.1330     3.9590 h1         1 QYD       0.060700
     33 H101         1.0770     0.1840     6.9830 h1         1 QYD       0.078700
     34 H102         2.6860     0.3780     7.6990 h1         1 QYD       0.078700
     35 H111         3.6210    -1.2080     6.0660 h1         1 QYD       0.082200
     36 H112         2.2760    -1.9620     6.9440 h1         1 QYD       0.082200
     37 H15          3.2590     3.0890     4.2760 hn         1 QYD       0.331500
     38 H17          3.9460     5.5130     4.2250 ha         1 QYD       0.162000
     39 H21          5.8870     2.5540     6.6370 ha         1 QYD       0.162000
     40 H18          5.7870     7.0860     4.6840 ha         1 QYD       0.168000
     41 H20          7.7250     4.1340     7.0860 ha         1 QYD       0.168000
@<TRIPOS>BOND
     1     1     2 ar
     2     1     6 ar
     3     2     3 ar
     4     3     4 ar
     5     4     5 ar
     6     4     7 1
     7     5     6 ar
     8     7     8 1
     9     7    12 1
    10     8     9 1
    11     9    10 1
    12     9    13 1
    13    10    11 1
    14    11    12 1
    15    13    14 2
    16    13    15 1
    17    15    16 1
    18    16    17 ar
    19    16    21 ar
    20    17    18 ar
    21    18    19 ar
    22    19    20 ar
    23    19    22 1
    24    20    21 ar
    25    22    23 1
    26    22    24 1
    27     1    25 1
    28     2    26 1
    29     6    27 1
    30     3    28 1
    31     5    29 1
    32     7    30 1
    33     8    31 1
    34     8    32 1
    35    10    33 1
    36    10    34 1
    37    11    35 1
    38    11    36 1
    39    15    37 1
    40    17    38 1
    41    21    39 1
    42    18    40 1
    43    20    41 1
@<TRIPOS>SUBSTRUCTURE
     1 QYD         1 TEMP              0 ****  ****    0 ROOT
