@<TRIPOS>MOLECULE
QYT
   25    27     1     0     0
SMALL
bcc


@<TRIPOS>ATOM
      1 C1           0.0000     0.0000     0.0000 ca         1 QYT      -0.135300
      2 C2           1.3560     0.0000     0.0000 ca         1 QYT      -0.069000
      3 C3           2.0780     0.0000     1.2110 ca         1 QYT      -0.099800
      4 C7           5.6990     0.2920     2.5530 c          1 QYT       0.621700
      5 C11          5.2390     1.1780     4.6590 c          1 QYT       0.688100
      6 C13          0.0060     0.0010     2.4440 ca         1 QYT       0.256300
      7 C14         -0.7070    -0.0000     1.2180 ca         1 QYT       0.273300
      8 C16         -2.6820     0.0000     2.3820 ca         1 QYT       0.298900
      9 N18         -0.6680     0.0020     3.6000 nb         1 QYT      -0.523000
     10 C4           1.4100    -0.0050     2.4280 ca         1 QYT      -0.122300
     11 C5           3.5470     0.0010     1.1860 ce         1 QYT       0.108800
     12 C6           4.2450     0.3580     2.2930 cd         1 QYT      -0.098600
     13 S8           3.6570     1.0300     3.8410 ss         1 QYT      -0.306200
     14 N9           6.1070     0.7130     3.7380 ns         1 QYT      -0.174500
     15 O12          5.4740     1.5930     5.7780 o          1 QYT      -0.550500
     16 N15         -2.0440    -0.0010     1.2340 nb         1 QYT      -0.538000
     17 C17         -1.9810     0.0010     3.5890 ca         1 QYT       0.288900
     18 H1          -0.5410     0.0000    -0.9390 ha         1 QYT       0.123000
     19 H2           1.8910     0.0040    -0.9420 ha         1 QYT       0.111000
     20 H16         -3.7660    -0.0000     2.3920 h4         1 QYT      -0.010900
     21 H4           1.9660    -0.0050     3.3570 ha         1 QYT       0.165000
     22 H5           4.0700    -0.4000     0.3260 ha         1 QYT       0.127000
     23 HN9          7.0840     0.6880     3.9560 hn         1 QYT       0.195500
     24 H17         -2.5260     0.0020     4.5250 h4         1 QYT      -0.008900
     25 O10          6.4800    -0.1290     1.7190 o          1 QYT      -0.620500
@<TRIPOS>BOND
     1     1     2 ar  
     2     1     7 ar  
     3     1    18 1   
     4     2     3 ar  
     5     2    19 1   
     6     3    10 ar  
     7     3    11 1   
     8     4    12 1   
     9     4    14 1   
    10     4    25 2   
    11     5    13 1   
    12     5    14 1   
    13     5    15 2   
    14     6     7 ar  
    15     6     9 ar  
    16     6    10 ar  
    17     7    16 ar  
    18     8    16 ar  
    19     8    17 ar  
    20     8    20 1   
    21     9    17 ar  
    22    10    21 1   
    23    11    12 2   
    24    11    22 1   
    25    12    13 1   
    26    14    23 1   
    27    17    24 1   
@<TRIPOS>SUBSTRUCTURE
     1 QYT         1 TEMP              0 ****  ****    0 ROOT
