@<TRIPOS>MOLECULE
molecule
   45    47     1     0     0
SMALL
bcc


@<TRIPOS>ATOM
      1 C15         -2.2080    -2.4090     1.7120 cg         1 QZ3       0.223500
      2 C18          0.0000     0.0000     0.0000 ca         1 QZ3      -0.103000
      3 C22          0.0070     0.0000     2.4220 ca         1 QZ3      -0.103000
      4 C19          1.3710     0.0000     0.0000 ca         1 QZ3      -0.126500
      5 C21          1.3780     0.0000     2.4140 ca         1 QZ3      -0.126500
      6 C4          -5.0240     2.3870     0.7370 ca         1 QZ3      -0.321300
      7 C17         -0.6980     0.0000     1.2130 ca         1 QZ3      -0.068800
      8 C6          -2.9280     1.2340     0.9670 ca         1 QZ3      -0.270100
      9 C5          -4.3350     1.1990     0.9780 ca         1 QZ3       0.135600
     10 C20          2.0690     0.0000     1.2050 ca         1 QZ3       0.128600
     11 C3          -4.3040     3.5380     0.4990 ca         1 QZ3       0.493600
     12 C7          -2.2800     2.4460     0.7180 ca         1 QZ3       0.515600
     13 C11         -2.8930    -1.1760     1.4610 cc         1 QZ3      -0.086900
     14 C10         -2.1720     0.0010     1.2180 cd         1 QZ3       0.120600
     15 C12         -4.3560    -1.1270     1.4560 c          1 QZ3       0.709700
     16 C1          -4.5640     5.8950     1.2250 c3         1 QZ3      -0.084100
     17 C27          3.7710    -2.6580     0.5860 c3         1 QZ3      -0.240300
     18 C2          -5.0400     4.8270     0.2380 c3         1 QZ3      -0.132700
     19 N16         -1.6740    -3.3870     1.9300 n1         1 QZ3      -0.344800
     20 N8          -2.9820     3.5380     0.4960 nb         1 QZ3      -0.721000
     21 N14         -5.0080     0.0250     1.2210 ns         1 QZ3      -0.424100
     22 N23          3.4600    -0.0010     1.2010 nu         1 QZ3      -0.783500
     23 O13         -4.9910    -2.1450     1.6650 o          1 QZ3      -0.613500
     24 O25          3.7850    -1.5770     3.0260 o          1 QZ3      -0.623300
     25 O26          5.6540    -1.0070     1.5080 o          1 QZ3      -0.623300
     26 S24          4.2880    -1.3380     1.7180 s6         1 QZ3       1.321900
     27 H18         -0.5420    -0.0000    -0.9380 ha         1 QZ3       0.150000
     28 H19          1.9130    -0.0000    -0.9380 ha         1 QZ3       0.158000
     29 H22         -0.5290     0.0000     3.3640 ha         1 QZ3       0.150000
     30 H21          1.9250     0.0000     3.3490 ha         1 QZ3       0.158000
     31 H4          -6.1070     2.3900     0.7080 ha         1 QZ3       0.148000
     32 H14         -6.0090     0.0140     1.2270 hn         1 QZ3       0.349500
     33 H23          3.9600     0.8230     0.9320 hn         1 QZ3       0.468800
     34 H21C        -4.9180     5.1080    -0.8010 hc         1 QZ3       0.057700
     35 H22C        -6.0930     4.6920     0.4540 hc         1 QZ3       0.057700
     36 H91C        -0.4190     2.9380     1.6270 hc         1 QZ3       0.076367
     37 H92C        -0.4460     3.1120    -0.1330 hc         1 QZ3       0.076367
     38 H93C        -0.3760     1.5020     0.5960 hc         1 QZ3       0.076367
     39 H11C        -3.5550     6.1950     0.9720 hc         1 QZ3       0.042367
     40 H12C        -4.5800     5.4900     2.2300 hc         1 QZ3       0.042367
     41 H13C        -5.2210     6.7540     1.1710 hc         1 QZ3       0.042367
     42 H271         4.4180    -3.5170     0.7140 h1         1 QZ3       0.101700
     43 H272         2.7480    -2.9400     0.8040 h1         1 QZ3       0.101700
     44 H273         3.8390    -2.3040    -0.4350 h1         1 QZ3       0.101700
     45 C9          -0.7740     2.5030     0.7010 c3         1 QZ3      -0.210400
@<TRIPOS>BOND
     1     1    13 1
     2     1    19 3
     3     2     4 ar
     4     2     7 ar
     5     3     5 ar
     6     3     7 ar
     7     4    10 ar
     8     5    10 ar
     9     6     9 ar
    10     6    11 ar
    11     7    14 1
    12     8     9 ar
    13     8    12 ar
    14     8    14 1
    15     9    21 1
    16    10    22 1
    17    11    18 1
    18    11    20 ar
    19    12    45 1
    20    12    20 ar
    21    13    14 2
    22    13    15 1
    23    15    21 1
    24    15    23 2
    25    16    18 1
    26    17    26 1
    27    22    26 1
    28    24    26 2
    29    25    26 2
    30     2    27 1
    31     4    28 1
    32     3    29 1
    33     5    30 1
    34     6    31 1
    35    21    32 1
    36    22    33 1
    37    18    34 1
    38    18    35 1
    39    45    36 1
    40    45    37 1
    41    45    38 1
    42    16    39 1
    43    16    40 1
    44    16    41 1
    45    17    42 1
    46    17    43 1
    47    17    44 1
@<TRIPOS>SUBSTRUCTURE
     1 QZ3         1 TEMP              0 ****  ****    0 ROOT
