@<TRIPOS>MOLECULE
molecule
   46    50     1     0     0
SMALL
bcc


@<TRIPOS>ATOM
      1 C14         -2.7810    -0.0840     7.3500 cg         1 QZE       0.246500
      2 C1           0.0000     0.0000     0.0000 ca         1 QZE      -0.147000
      3 C2           1.3820     0.0000     0.0000 ca         1 QZE      -0.117000
      4 C6          -0.6960     0.0100     1.1930 ca         1 QZE      -0.135000
      5 C17          0.2360    -0.3430     8.3080 ca         1 QZE      -0.137000
      6 C21          0.5600     1.9230     7.5280 ca         1 QZE      -0.137000
      7 C18          0.9140    -0.0410     9.4690 ca         1 QZE      -0.096000
      8 C20          1.2380     2.2260     8.6870 ca         1 QZE      -0.096000
      9 C31          4.3730    -0.8430     0.4890 cc         1 QZE      -0.102300
     10 C28          4.4040     0.8710     1.9260 cd         1 QZE       0.352200
     11 C3           2.0840     0.0000     1.2040 ca         1 QZE       0.003000
     12 C27          3.5700     0.0000     1.1990 cd         1 QZE      -0.268300
     13 C16          0.0550     0.6360     7.3300 ca         1 QZE      -0.131800
     14 C5          -0.0020     0.0190     2.4040 ca         1 QZE      -0.046800
     15 C19          1.4190     1.2460     9.6660 ca         1 QZE      -0.072600
     16 C4           1.3920    -0.0010     2.4100 ca         1 QZE      -0.039300
     17 C10         -2.0790    -0.0010     6.1050 cc         1 QZE      -0.134900
     18 C9          -0.7140     0.3390     6.0760 cd         1 QZE       0.142800
     19 C7          -0.7290     0.0340     3.6900 cc         1 QZE       0.111400
     20 C8          -0.0470     0.3580     4.8440 cd         1 QZE      -0.168200
     21 C11         -2.7390    -0.2990     4.8880 c          1 QZE       0.699700
     22 C22          2.1490     1.5640    10.9110 c          1 QZE       0.878200
     23 C26          2.1380    -0.0500     3.7150 c3         1 QZE      -0.047100
     24 C25          1.4030     0.7590     4.7810 c3         1 QZE      -0.013200
     25 N15         -3.3540    -0.1440     8.3290 n1         1 QZE      -0.373800
     26 N30          5.6520    -0.5130     0.7610 na         1 QZE      -0.045600
     27 N29          5.6450     0.5600     1.6610 nc         1 QZE      -0.506800
     28 N13         -2.0610    -0.2740     3.7270 ns         1 QZE      -0.403100
     29 O12         -3.9250    -0.5820     4.8930 o          1 QZE      -0.661500
     30 O23          2.3090     0.7070    11.7580 o          1 QZE      -0.829800
     31 O24          2.6390     2.8040    11.1080 o          1 QZE      -0.829800
     32 H1          -0.5410    -0.0050    -0.9380 ha         1 QZE       0.129000
     33 H2           1.9230     0.0270    -0.9380 ha         1 QZE       0.129000
     34 H6          -1.6660     0.4060     0.9180 ha         1 QZE       0.139000
     35 H17         -0.2020    -1.3250     8.1770 ha         1 QZE       0.115000
     36 H18          1.0260    -0.7920    10.2410 ha         1 QZE       0.152000
     37 H21          0.4640     2.6670     6.7460 ha         1 QZE       0.115000
     38 H20          1.5310     3.2680     8.7180 ha         1 QZE       0.152000
     39 H31          4.0400    -1.6330    -0.1730 h4         1 QZE       0.172000
     40 H30          6.4660    -0.9570     0.3860 hn         1 QZE       0.328700
     41 H28          4.0750     1.6750     2.5740 h4         1 QZE       0.060100
     42 H261         2.5240    -1.0570     3.8190 hc         1 QZE       0.066200
     43 H262         2.9520     0.6620     3.6390 hc         1 QZE       0.066200
     44 H13         -2.5870    -0.3010     2.8760 hn         1 QZE       0.334500
     45 H251         1.4530     1.7910     4.4540 hc         1 QZE       0.074200
     46 H252         1.8300     0.6330     5.7690 hc         1 QZE       0.074200
@<TRIPOS>BOND
     1     1    17 1
     2     1    25 3
     3     2     3 ar
     4     2     4 ar
     5     3    11 ar
     6     4    14 ar
     7     5     7 ar
     8     5    13 ar
     9     6     8 ar
    10     6    13 ar
    11     7    15 ar
    12     8    15 ar
    13     9    12 2
    14     9    26 1
    15    10    12 1
    16    10    27 2
    17    11    12 1
    18    11    16 ar
    19    13    18 1
    20    14    16 ar
    21    14    19 1
    22    15    22 1
    23    16    23 1
    24    17    18 2
    25    17    21 1
    26    18    20 1
    27    19    20 2
    28    19    28 1
    29    20    24 1
    30    21    28 1
    31    21    29 2
    32    22    30 1
    33    22    31 1
    34    23    24 1
    35    26    27 1
    36     2    32 1
    37     3    33 1
    38     4    34 1
    39     5    35 1
    40     7    36 1
    41     6    37 1
    42     8    38 1
    43     9    39 1
    44    26    40 1
    45    10    41 1
    46    23    42 1
    47    23    43 1
    48    28    44 1
    49    24    45 1
    50    24    46 1
@<TRIPOS>SUBSTRUCTURE
     1 QZE         1 TEMP              0 ****  ****    0 ROOT
