@<TRIPOS>MOLECULE
QZE
   46    50     1     0     0
SMALL
bcc


@<TRIPOS>ATOM
      1 C14         -2.7810    -0.0840     7.3500 cg         1 QZE       0.244500
      2 C1           0.0000     0.0000     0.0000 ca         1 QZE      -0.119000
      3 C2           1.3820     0.0000     0.0000 ca         1 QZE      -0.097000
      4 C6          -0.6960     0.0100     1.1930 ca         1 QZE      -0.124000
      5 C17          0.2360    -0.3430     8.3080 ca         1 QZE      -0.121500
      6 C21          0.5600     1.9230     7.5280 ca         1 QZE      -0.121500
      7 C18          0.9140    -0.0410     9.4690 ca         1 QZE      -0.065000
      8 C20          1.2380     2.2260     8.6870 ca         1 QZE      -0.065000
      9 C31          4.3730    -0.8430     0.4890 cc         1 QZE      -0.256300
     10 C28          4.4040     0.8710     1.9260 cd         1 QZE       0.411200
     11 C3           2.0840     0.0000     1.2040 ca         1 QZE       0.021000
     12 C27          3.5700     0.0000     1.1990 cd         1 QZE      -0.271300
     13 C16          0.0550     0.6360     7.3300 ca         1 QZE      -0.136800
     14 C5          -0.0020     0.0190     2.4040 ca         1 QZE      -0.029800
     15 C19          1.4190     1.2460     9.6660 ca         1 QZE      -0.070600
     16 C4           1.3920    -0.0010     2.4100 ca         1 QZE      -0.046300
     17 C10         -2.0790    -0.0010     6.1050 cc         1 QZE      -0.093900
     18 C9          -0.7140     0.3390     6.0760 cd         1 QZE       0.147800
     19 C7          -0.7290     0.0340     3.6900 cc         1 QZE      -0.061600
     20 C8          -0.0470     0.3580     4.8440 cd         1 QZE      -0.164200
     21 C11         -2.7390    -0.2990     4.8880 c          1 QZE       0.588700
     22 C22          2.1490     1.5640    10.9110 c          1 QZE       0.967200
     23 C26          2.1380    -0.0500     3.7150 c3         1 QZE       0.003900
     24 C25          1.4030     0.7590     4.7810 c3         1 QZE       0.044800
     25 N15         -3.3540    -0.1440     8.3290 n1         1 QZE      -0.398800
     26 N30          5.6520    -0.5130     0.7610 na         1 QZE       0.450400
     27 N29          5.6450     0.5600     1.6610 nc         1 QZE      -0.658800
     28 N13         -2.0610    -0.2740     3.7270 ns         1 QZE       0.085900
     29 O12         -3.9250    -0.5820     4.8930 o          1 QZE      -0.711500
     30 O23          2.3090     0.7070    11.7580 o          1 QZE      -0.878800
     31 O24          2.6390     2.8040    11.1080 o          1 QZE      -0.878800
     32 H1          -0.5410    -0.0050    -0.9380 ha         1 QZE       0.102000
     33 H2           1.9230     0.0270    -0.9380 ha         1 QZE       0.103000
     34 H6          -1.6660     0.4060     0.9180 ha         1 QZE       0.116000
     35 H17         -0.2020    -1.3250     8.1770 ha         1 QZE       0.093000
     36 H18          1.0260    -0.7920    10.2410 ha         1 QZE       0.124000
     37 H21          0.4640     2.6670     6.7460 ha         1 QZE       0.093000
     38 H20          1.5310     3.2680     8.7180 ha         1 QZE       0.124000
     39 H31          4.0400    -1.6330    -0.1730 h4         1 QZE       0.146000
     40 H30          6.4660    -0.9570     0.3860 hn         1 QZE       0.145700
     41 H28          4.0750     1.6750     2.5740 h4         1 QZE       0.018100
     42 H261         2.5240    -1.0570     3.8190 hc         1 QZE       0.038700
     43 H262         2.9520     0.6620     3.6390 hc         1 QZE       0.038700
     44 H13         -2.5870    -0.3010     2.8760 hn         1 QZE       0.171500
     45 H251         1.4530     1.7910     4.4540 hc         1 QZE       0.044200
     46 H252         1.8300     0.6330     5.7690 hc         1 QZE       0.044200
@<TRIPOS>BOND
     1     1    17 1   
     2     1    25 3   
     3     2     3 ar  
     4     2     4 ar  
     5     2    32 1   
     6     3    11 ar  
     7     3    33 1   
     8     4    14 ar  
     9     4    34 1   
    10     5     7 ar  
    11     5    13 ar  
    12     5    35 1   
    13     6     8 ar  
    14     6    13 ar  
    15     6    37 1   
    16     7    15 ar  
    17     7    36 1   
    18     8    15 ar  
    19     8    38 1   
    20     9    12 2   
    21     9    26 1   
    22     9    39 1   
    23    10    12 1   
    24    10    27 2   
    25    10    41 1   
    26    11    12 1   
    27    11    16 ar  
    28    13    18 1   
    29    14    16 ar  
    30    14    19 1   
    31    15    22 1   
    32    16    23 1   
    33    17    18 2   
    34    17    21 1   
    35    18    20 1   
    36    19    20 2   
    37    19    28 1   
    38    20    24 1   
    39    21    28 1   
    40    21    29 2   
    41    22    30 1   
    42    22    31 1   
    43    23    24 1   
    44    23    42 1   
    45    23    43 1   
    46    24    45 1   
    47    24    46 1   
    48    26    27 1   
    49    26    40 1   
    50    28    44 1   
@<TRIPOS>SUBSTRUCTURE
     1 QZE         1 TEMP              0 ****  ****    0 ROOT
