@<TRIPOS>MOLECULE
molecule
   36    37     1     0     0
SMALL
bcc


@<TRIPOS>ATOM
      1 OAE          0.0000     0.0000     0.0000 o          1 QZK      -0.829000
      2 PAW          1.6100     0.0000     0.0000 p5         1 QZK       1.001200
      3 OAF          2.1460     0.0000     1.5180 o          1 QZK      -0.829000
      4 OAA          2.1030    -1.2080    -0.6970 o          1 QZK      -0.829000
      5 CAV          2.2170     1.4890    -0.8600 c3         1 QZK       0.112100
      6 PAX          1.6090     2.9770    -0.0000 p5         1 QZK       1.001200
      7 OAG          2.0770     2.9620     1.4040 o          1 QZK      -0.829000
      8 OAH          2.1720     4.2910    -0.7400 o          1 QZK      -0.829000
      9 OAB         -0.0000     2.9930    -0.0290 o          1 QZK      -0.829000
     10 NAR          3.6820     1.4880    -0.8590 n7         1 QZK      -0.775100
     11 SAY          4.5100     1.1500    -2.2530 sy         1 QZK       1.377200
     12 OAC          5.8910     1.2570    -1.9350 o          1 QZK      -0.694800
     13 OAD          3.9250    -0.0280    -2.7910 o          1 QZK      -0.694800
     14 CAU          4.1610     2.4450    -3.3950 ca         1 QZK      -0.327500
     15 CAQ          4.8980     3.6150    -3.3570 ca         1 QZK      -0.020500
     16 CAO          4.6290     4.6330    -4.2490 ca         1 QZK      -0.166500
     17 CAP          3.1540     2.2870    -4.3310 ca         1 QZK      -0.020500
     18 CAN          2.8770     3.2980    -5.2280 ca         1 QZK      -0.166500
     19 CAT          3.6130     4.4810    -5.1900 cp         1 QZK      -0.056000
     20 CAS          3.3190     5.5710    -6.1520 cp         1 QZK      -0.052000
     21 CAL          2.3030     5.4190    -7.0930 ca         1 QZK      -0.161500
     22 CAJ          2.0330     6.4370    -7.9850 ca         1 QZK      -0.133500
     23 CAI          2.7710     7.6070    -7.9470 ca         1 QZK      -0.308000
     24 CAK          3.7810     7.7630    -7.0150 ca         1 QZK      -0.133500
     25 CAM          4.0540     6.7540    -6.1150 ca         1 QZK      -0.161500
     26 H3           1.8560     1.4880    -1.8810 h1         1 QZK       0.060700
     27 H6           4.1820     1.6540    -0.0080 hn         1 QZK       0.461800
     28 H7           5.6940     3.7290    -2.6320 ha         1 QZK       0.123000
     29 H8           5.2420     5.5250    -4.2540 ha         1 QZK       0.086500
     30 H9           2.5990     1.3570    -4.3750 ha         1 QZK       0.123000
     31 H10          2.1270     3.1510    -5.9950 ha         1 QZK       0.086500
     32 H11          1.7250     4.5040    -7.1240 ha         1 QZK       0.111500
     33 H12          1.2430     6.3190    -8.7170 ha         1 QZK       0.065000
     34 H13          2.5570     8.4020    -8.6510 ha         1 QZK       0.059000
     35 H14          4.3540     8.6820    -6.9880 ha         1 QZK       0.065000
     36 H15          4.8460     6.8780    -5.3860 ha         1 QZK       0.111500
@<TRIPOS>BOND
     1     4     2 1
     2     7     6 1
     3     9     6 1
     4     6     8 1
     5     6     5 1
     6     2     1 1
     7     2     3 1
     8     2     5 1
     9     5    10 1
    10    10    11 1
    11    12    11 2
    12    11    14 1
    13    11    13 2
    14    14    15 ar
    15    14    17 ar
    16    15    16 ar
    17    17    18 ar
    18    16    19 ar
    19    18    19 ar
    20    19    20 1
    21    25    20 ar
    22    25    24 ar
    23    20    21 ar
    24    24    23 ar
    25    21    22 ar
    26    23    22 ar
    27     5    26 1
    28    10    27 1
    29    15    28 1
    30    16    29 1
    31    17    30 1
    32    18    31 1
    33    21    32 1
    34    22    33 1
    35    23    34 1
    36    24    35 1
    37    25    36 1
@<TRIPOS>SUBSTRUCTURE
     1 QZK         1 TEMP              0 ****  ****    0 ROOT
