@<TRIPOS>MOLECULE
QZK
   36    37     1     0     0
SMALL
bcc


@<TRIPOS>ATOM
      1 OAE          0.0000     0.0000     0.0000 o          1 QZK      -0.630167
      2 PAW          1.6100     0.0000     0.0000 p5         1 QZK       0.423200
      3 OAF          2.1460     0.0000     1.5180 o          1 QZK      -0.630167
      4 OAA          2.1030    -1.2080    -0.6970 o          1 QZK      -0.630167
      5 CAV          2.2170     1.4890    -0.8600 c3         1 QZK       0.661100
      6 PAX          1.6090     2.9770    -0.0000 p5         1 QZK       0.423200
      7 OAG          2.0770     2.9620     1.4040 o          1 QZK      -0.630167
      8 OAH          2.1720     4.2910    -0.7400 o          1 QZK      -0.630167
      9 OAB         -0.0000     2.9930    -0.0290 o          1 QZK      -0.630167
     10 NAR          3.6820     1.4880    -0.8590 n7         1 QZK      -0.400100
     11 SAY          4.5100     1.1500    -2.2530 sy         1 QZK       0.980200
     12 OAC          5.8910     1.2570    -1.9350 o          1 QZK      -0.646300
     13 OAD          3.9250    -0.0280    -2.7910 o          1 QZK      -0.646300
     14 CAU          4.1610     2.4450    -3.3950 ca         1 QZK      -0.318500
     15 CAQ          4.8980     3.6150    -3.3570 ca         1 QZK      -0.001500
     16 CAO          4.6290     4.6330    -4.2490 ca         1 QZK      -0.195500
     17 CAP          3.1540     2.2870    -4.3310 ca         1 QZK      -0.001500
     18 CAN          2.8770     3.2980    -5.2280 ca         1 QZK      -0.195500
     19 CAT          3.6130     4.4810    -5.1900 cp         1 QZK      -0.088000
     20 CAS          3.3190     5.5710    -6.1520 cp         1 QZK      -0.110000
     21 CAL          2.3030     5.4190    -7.0930 ca         1 QZK      -0.194000
     22 CAJ          2.0330     6.4370    -7.9850 ca         1 QZK      -0.097500
     23 CAI          2.7710     7.6070    -7.9470 ca         1 QZK      -0.445000
     24 CAK          3.7810     7.7630    -7.0150 ca         1 QZK      -0.097500
     25 CAM          4.0540     6.7540    -6.1150 ca         1 QZK      -0.194000
     26 H3           1.8560     1.4880    -1.8810 h1         1 QZK       0.029700
     27 H6           4.1820     1.6540    -0.0080 hn         1 QZK       0.346800
     28 H7           5.6940     3.7290    -2.6320 ha         1 QZK       0.074000
     29 H8           5.2420     5.5250    -4.2540 ha         1 QZK       0.069500
     30 H9           2.5990     1.3570    -4.3750 ha         1 QZK       0.074000
     31 H10          2.1270     3.1510    -5.9950 ha         1 QZK       0.069500
     32 H11          1.7250     4.5040    -7.1240 ha         1 QZK       0.082000
     33 H12          1.2430     6.3190    -8.7170 ha         1 QZK       0.026000
     34 H13          2.5570     8.4020    -8.6510 ha         1 QZK       0.044000
     35 H14          4.3540     8.6820    -6.9880 ha         1 QZK       0.026000
     36 H15          4.8460     6.8780    -5.3860 ha         1 QZK       0.082000
@<TRIPOS>BOND
     1     1     2 1   
     2     2     3 1   
     3     2     4 1   
     4     2     5 1   
     5     5     6 1   
     6     5    10 1   
     7     5    26 1   
     8     6     7 1   
     9     6     8 1   
    10     6     9 1   
    11    10    11 1   
    12    10    27 1   
    13    11    12 2   
    14    11    13 2   
    15    11    14 1   
    16    14    15 ar  
    17    14    17 ar  
    18    15    16 ar  
    19    15    28 1   
    20    16    19 ar  
    21    16    29 1   
    22    17    18 ar  
    23    17    30 1   
    24    18    19 ar  
    25    18    31 1   
    26    19    20 1   
    27    20    21 ar  
    28    20    25 ar  
    29    21    22 ar  
    30    21    32 1   
    31    22    23 ar  
    32    22    33 1   
    33    23    24 ar  
    34    23    34 1   
    35    24    25 ar  
    36    24    35 1   
    37    25    36 1   
@<TRIPOS>SUBSTRUCTURE
     1 QZK         1 TEMP              0 ****  ****    0 ROOT
