@<TRIPOS>MOLECULE
QZN
   47    48     1     0     0
SMALL
bcc


@<TRIPOS>ATOM
      1 CAA          0.0000     0.0000     0.0000 c3         1 QZN       0.006900
      2 CAH          1.5300     0.0000     0.0000 c3         1 QZN      -0.027400
      3 CAI          2.0390     0.0000     1.4430 c3         1 QZN      -0.029400
      4 CAJ          3.5690    -0.0000     1.4430 c3         1 QZN      -0.028400
      5 CAK          4.0790     0.0010     2.8850 c3         1 QZN      -0.028400
      6 CAL          5.6100     0.0010     2.8850 c3         1 QZN      -0.025400
      7 CAM          6.1190     0.0010     4.3280 c3         1 QZN      -0.030400
      8 CAN          7.6490     0.0020     4.3280 c3         1 QZN      -0.012400
      9 CAO          8.1590     0.0020     5.7710 c3         1 QZN      -0.065700
     10 CAR          9.6660     0.0020     5.7710 cc         1 QZN       0.226900
     11 NAP         10.2820     0.0020     4.6270 nd         1 QZN      -0.367100
     12 CAT         11.6360     0.0020     4.5500 ca         1 QZN       0.109400
     13 CAG         12.3020     0.0010     3.3220 ca         1 QZN      -0.055000
     14 CAQ         13.6790     0.0010     3.2960 ca         1 QZN      -0.005600
     15 Cl          14.5070     0.0010     1.7710 cl         1 QZN       0.060600
     16 CAE         14.4130     0.0010     4.4770 ca         1 QZN      -0.079000
     17 CAF         13.7840     0.0020     5.6900 ca         1 QZN       0.004000
     18 CAU         12.3910     0.0020     5.7440 ca         1 QZN      -0.203600
     19 CAS         11.6630     0.0020     7.0210 c          1 QZN       0.668100
     20 OAC         12.2530     0.0010     8.0860 o          1 QZN      -0.620500
     21 NAV         10.3110     0.0080     6.9670 n          1 QZN      -0.178700
     22 NAB          9.5870     0.0080     8.1250 nz         1 QZN       0.237400
     23 H1          -0.3610     0.0000    -1.0210 hc         1 QZN       0.002700
     24 H2          -0.3610    -0.8850     0.5110 hc         1 QZN       0.002700
     25 H3          -0.3610     0.8850     0.5110 hc         1 QZN       0.002700
     26 H4           1.8910    -0.8850    -0.5110 hc         1 QZN       0.013700
     27 H5           1.8910     0.8850    -0.5110 hc         1 QZN       0.013700
     28 H6           1.6780    -0.8850     1.9530 hc         1 QZN       0.015700
     29 H7           1.6780     0.8850     1.9530 hc         1 QZN       0.015700
     30 H8           3.9300    -0.8850     0.9330 hc         1 QZN       0.016700
     31 H9           3.9300     0.8840     0.9320 hc         1 QZN       0.016700
     32 H10          3.7180     0.8860     3.3950 hc         1 QZN       0.015700
     33 H11          3.7180    -0.8830     3.3960 hc         1 QZN       0.015700
     34 H12          5.9710    -0.8840     2.3740 hc         1 QZN       0.020700
     35 H13          5.9710     0.8860     2.3740 hc         1 QZN       0.020700
     36 H14          5.7590    -0.8840     4.8380 hc         1 QZN       0.014700
     37 H15          5.7580     0.8850     4.8390 hc         1 QZN       0.014700
     38 H16          8.0100     0.8870     3.8170 hc         1 QZN       0.039700
     39 H17          8.0110    -0.8820     3.8170 hc         1 QZN       0.039700
     40 H18          7.7980     0.8870     6.2810 hc         1 QZN       0.020700
     41 H19          7.7980    -0.8830     6.2810 hc         1 QZN       0.020700
     42 H20         11.7420     0.1210     2.4030 ha         1 QZN       0.144000
     43 H21         15.4960     0.0010     4.4340 ha         1 QZN       0.137000
     44 H22         14.3640     0.0020     6.6050 ha         1 QZN       0.137000
     45 H23          9.0140    -0.8120     8.1600 hn         1 QZN       0.234467
     46 H24          9.0050     0.8220     8.1540 hn         1 QZN       0.234467
     47 HAB3        10.2100     0.0140     8.9080 hn         1 QZN       0.234467
@<TRIPOS>BOND
     1     1     2 1   
     2     1    23 1   
     3     1    24 1   
     4     1    25 1   
     5     2     3 1   
     6     2    26 1   
     7     2    27 1   
     8     3     4 1   
     9     3    28 1   
    10     3    29 1   
    11     4     5 1   
    12     4    30 1   
    13     4    31 1   
    14     5     6 1   
    15     5    32 1   
    16     5    33 1   
    17     6     7 1   
    18     6    34 1   
    19     6    35 1   
    20     7     8 1   
    21     7    36 1   
    22     7    37 1   
    23     8     9 1   
    24     8    38 1   
    25     8    39 1   
    26     9    10 1   
    27     9    40 1   
    28     9    41 1   
    29    10    11 2   
    30    10    21 1   
    31    11    12 1   
    32    12    13 ar  
    33    12    18 ar  
    34    13    14 ar  
    35    13    42 1   
    36    14    15 1   
    37    14    16 ar  
    38    16    17 ar  
    39    16    43 1   
    40    17    18 ar  
    41    17    44 1   
    42    18    19 1   
    43    19    20 2   
    44    19    21 1   
    45    21    22 1   
    46    22    45 1   
    47    22    46 1   
    48    22    47 1   
@<TRIPOS>SUBSTRUCTURE
     1 QZN         1 TEMP              0 ****  ****    0 ROOT
