@<TRIPOS>MOLECULE
molecule
   47    48     1     0     0
SMALL
bcc


@<TRIPOS>ATOM
      1 CAA          0.0000     0.0000     0.0000 c3         1 QZN      -0.092100
      2 CAH          1.5300     0.0000     0.0000 c3         1 QZN      -0.083400
      3 CAI          2.0390     0.0000     1.4430 c3         1 QZN      -0.081400
      4 CAJ          3.5690    -0.0000     1.4430 c3         1 QZN      -0.081400
      5 CAK          4.0790     0.0010     2.8850 c3         1 QZN      -0.081400
      6 CAL          5.6100     0.0010     2.8850 c3         1 QZN      -0.078400
      7 CAM          6.1190     0.0010     4.3280 c3         1 QZN      -0.087400
      8 CAN          7.6490     0.0020     4.3280 c3         1 QZN      -0.061400
      9 CAO          8.1590     0.0020     5.7710 c3         1 QZN      -0.134700
     10 CAR          9.6660     0.0020     5.7710 cc         1 QZN       0.437900
     11 NAP         10.2820     0.0020     4.6270 nd         1 QZN      -0.521100
     12 CAT         11.6360     0.0020     4.5500 ca         1 QZN       0.168400
     13 CAG         12.3020     0.0010     3.3220 ca         1 QZN      -0.087000
     14 CAQ         13.6790     0.0010     3.2960 ca         1 QZN       0.075400
     15 Cl          14.5070     0.0010     1.7710 cl         1 QZN      -0.036400
     16 CAE         14.4130     0.0010     4.4770 ca         1 QZN      -0.111000
     17 CAF         13.7840     0.0020     5.6900 ca         1 QZN      -0.036000
     18 CAU         12.3910     0.0020     5.7440 ca         1 QZN      -0.189600
     19 CAS         11.6630     0.0020     7.0210 c          1 QZN       0.710100
     20 OAC         12.2530     0.0010     8.0860 o          1 QZN      -0.587500
     21 NAV         10.3110     0.0080     6.9670 n          1 QZN      -0.330700
     22 NAB          9.5870     0.0080     8.1250 nz         1 QZN      -0.553600
     23 H1          -0.3610     0.0000    -1.0210 hc         1 QZN       0.035367
     24 H2          -0.3610    -0.8850     0.5110 hc         1 QZN       0.035367
     25 H3          -0.3610     0.8850     0.5110 hc         1 QZN       0.035367
     26 H4           1.8910    -0.8850    -0.5110 hc         1 QZN       0.041700
     27 H5           1.8910     0.8850    -0.5110 hc         1 QZN       0.041700
     28 H6           1.6780    -0.8850     1.9530 hc         1 QZN       0.042700
     29 H7           1.6780     0.8850     1.9530 hc         1 QZN       0.042700
     30 H8           3.9300    -0.8850     0.9330 hc         1 QZN       0.043700
     31 H9           3.9300     0.8840     0.9320 hc         1 QZN       0.043700
     32 H10          3.7180     0.8860     3.3950 hc         1 QZN       0.042700
     33 H11          3.7180    -0.8830     3.3960 hc         1 QZN       0.042700
     34 H12          5.9710    -0.8840     2.3740 hc         1 QZN       0.048700
     35 H13          5.9710     0.8860     2.3740 hc         1 QZN       0.048700
     36 H14          5.7590    -0.8840     4.8380 hc         1 QZN       0.042200
     37 H15          5.7580     0.8850     4.8390 hc         1 QZN       0.042200
     38 H16          8.0100     0.8870     3.8170 hc         1 QZN       0.072200
     39 H17          8.0110    -0.8820     3.8170 hc         1 QZN       0.072200
     40 H18          7.7980     0.8870     6.2810 hc         1 QZN       0.056700
     41 H19          7.7980    -0.8830     6.2810 hc         1 QZN       0.056700
     42 H20         11.7420     0.1210     2.4030 ha         1 QZN       0.183000
     43 H21         15.4960     0.0010     4.4340 ha         1 QZN       0.176000
     44 H22         14.3640     0.0020     6.6050 ha         1 QZN       0.175000
     45 H23          9.0140    -0.8120     8.1600 hn         1 QZN       0.474133
     46 H24          9.0050     0.8220     8.1540 hn         1 QZN       0.474133
     47 HAB3        10.2100     0.0140     8.9080 hn         1 QZN       0.474133
@<TRIPOS>BOND
     1     1     2 1
     2    20    19 2
     3    17    16 ar
     4    17    18 ar
     5    16    14 ar
     6     2     3 1
     7    19    18 1
     8    19    21 1
     9     3     4 1
    10    18    12 ar
    11     4     5 1
    12    14    15 1
    13    14    13 ar
    14    22    21 1
    15    21    10 1
    16    12    13 ar
    17    12    11 1
    18     5     6 1
    19    10    11 2
    20    10     9 1
    21     6     7 1
    22     8     9 1
    23     8     7 1
    24     1    23 1
    25     1    24 1
    26     1    25 1
    27     2    26 1
    28     2    27 1
    29     3    28 1
    30     3    29 1
    31     4    30 1
    32     4    31 1
    33     5    32 1
    34     5    33 1
    35     6    34 1
    36     6    35 1
    37     7    36 1
    38     7    37 1
    39     8    38 1
    40     8    39 1
    41     9    40 1
    42     9    41 1
    43    13    42 1
    44    16    43 1
    45    17    44 1
    46    22    45 1
    47    22    46 1
    48    47    22 1
@<TRIPOS>SUBSTRUCTURE
     1 QZN         1 TEMP              0 ****  ****    0 ROOT
