@<TRIPOS>MOLECULE
QZZ
   39    43     1     0     0
SMALL
bcc


@<TRIPOS>ATOM
      1 C5          0.4020   -0.6290   -0.2640 ca        1 QZZ     -0.104000
      2 C6          1.7040   -0.6330    0.2380 ca        1 QZZ     -0.138000
      3 C19         7.1470    2.1440    0.9190 ce        1 QZZ     -0.022000
      4 C23         8.0130    0.1040    2.0090 cy        1 QZZ     -0.179800
      5 C20         8.4000    2.7780    1.2730 ce        1 QZZ     -0.203000
      6 C22         9.0370    0.9450    2.8360 cy        1 QZZ      0.114700
      7 C4         -0.6650   -0.2320    0.5330 ca        1 QZZ     -0.150000
      8 C8          0.8830    0.1650    2.3790 ca        1 QZZ     -0.191000
      9 C18         6.9100    0.8770    1.3200 cf        1 QZZ     -0.179200
     10 C7          1.9460   -0.2390    1.5580 ca        1 QZZ     -0.035800
     11 C21         9.2130    2.3070    2.2480 cf        1 QZZ     -0.070400
     12 C3         -0.4150    0.1680    1.8590 ca        1 QZZ      0.122100
     13 C10         4.3510    0.3050    1.3150 cd        1 QZZ     -0.210000
     14 C12         5.9030   -0.2270    3.1340 cc        1 QZZ     -0.253800
     15 C11         5.6610    0.3060    1.8500 cd        1 QZZ      0.098000
     16 C9          3.3280   -0.2350    2.0760 cc        1 QZZ      0.102400
     17 C13         4.8480   -0.8050    3.9280 c         1 QZZ      0.719700
     18 C24        10.4720    3.0700    2.6560 c         1 QZZ      0.906800
     19 N17         8.1720    0.7230    4.0630 n2        1 QZZ     -0.469900
     20 N15         3.5630   -0.7770    3.3240 n         1 QZZ     -0.443100
     21 O14         4.9230   -1.3300    5.0550 o         1 QZZ     -0.644500
     22 O25        10.4310    4.3300    2.6320 o         1 QZZ     -0.816300
     23 O26        11.4850    2.3800    2.9580 o         1 QZZ     -0.816300
     24 O2         -1.5380    0.5430    2.5720 os        1 QZZ     -0.330900
     25 H5          0.2180   -0.9410   -1.3030 ha        1 QZZ      0.135000
     26 H6          2.5430   -0.9490   -0.4010 ha        1 QZZ      0.147000
     27 H4         -1.6950   -0.2230    0.1500 ha        1 QZZ      0.147000
     28 H19         6.3750    2.7630    0.4380 ha        1 QZZ      0.115000
     29 H20         8.6350    3.7450    0.8010 ha        1 QZZ      0.150000
     30 H23         8.3830   -0.7760    1.4600 hc        1 QZZ      0.083700
     31 H22        10.0550    0.4860    2.9660 h1        1 QZZ      0.130700
     32 H8          1.0790    0.4930    3.4090 ha        1 QZZ      0.147000
     33 H10         4.1510    0.7350    0.3270 ha        1 QZZ      0.154000
     34 H15         2.8000   -1.1650    3.8330 hn        1 QZZ      0.322500
     35 H11C       -0.8760    0.2230    4.5350 h1        1 QZZ      0.046033
     36 H12C       -0.6480    1.9230    3.8780 h1        1 QZZ      0.046033
     37 H13C       -2.3380    1.2990    4.2470 h1        1 QZZ      0.046033
     38 C1         -1.3130    1.0250    3.8920 c3        1 QZZ      0.111700
     39 C16         7.3200   -0.0230    3.3970 ce        1 QZZ      0.411600
@<TRIPOS>BOND
     1    1    2 ar
     2    1    7 ar
     3    1   25 1
     4    2   10 ar
     5    2   26 1
     6    3    5 1
     7    3    9 2
     8    3   28 1
     9    4    6 1
    10    4    9 1
    11    4   30 1
    12    4   39 1
    13    5   11 2
    14    5   29 1
    15    6   11 1
    16    6   19 1
    17    6   31 1
    18    7   12 ar
    19    7   27 1
    20    8   10 ar
    21    8   12 ar
    22    8   32 1
    23    9   15 1
    24   10   16 1
    25   11   18 1
    26   12   24 1
    27   13   15 1
    28   13   16 2
    29   13   33 1
    30   14   15 2
    31   14   17 1
    32   14   39 1
    33   16   20 1
    34   17   20 1
    35   17   21 2
    36   18   22 1
    37   18   23 1
    38   19   39 2
    39   20   34 1
    40   24   38 1
    41   35   38 1
    42   36   38 1
    43   37   38 1
@<TRIPOS>SUBSTRUCTURE
     1 QZZ         1 TEMP              0 ****  ****    0 ROOT
