@<TRIPOS>MOLECULE
W01
   45    47     1     0     0
SMALL
bcc


@<TRIPOS>ATOM
      1 O1          0.3020   -1.2490    0.8250 os        1 W01     -0.125100
      2 N2          1.5860   -1.0110    0.6490 nc        1 W01     -0.361300
      3 C3          1.8580    0.2570    1.0230 cd        1 W01      0.321600
      4 CM3         3.1700    0.9270    0.9880 c3        1 W01     -0.132400
      5 C4          0.6170    0.8870    1.4830 cd        1 W01     -0.362600
      6 C5         -0.3410   -0.0950    1.3430 cc        1 W01      0.264000
      7 C1C        -1.7820   -0.2170    1.5920 c3        1 W01     -0.118700
      8 C2C        -2.3820    1.0930    2.0570 c3        1 W01     -0.085400
      9 C3C        -3.8700    0.9220    2.3060 c3        1 W01      0.130400
     10 O1B        -4.3430    2.2040    2.7530 os        1 W01     -0.346900
     11 C1B        -5.7180    2.2330    2.9610 ca        1 W01      0.101100
     12 C2B        -6.2010    2.1540    4.2790 ca        1 W01     -0.089300
     13 CM2        -5.2800    1.9590    5.4220 c3        1 W01     -0.053300
     14 C3B        -7.5740    2.2870    4.5050 ca        1 W01     -0.095000
     15 C4B        -8.4540    2.4940    3.4350 ca        1 W01     -0.117500
     16 C5B        -7.9570    2.5760    2.1280 ca        1 W01     -0.095000
     17 C6B        -6.5890    2.4460    1.8770 ca        1 W01     -0.089300
     18 CM6        -6.0830    2.5390    0.4880 c3        1 W01     -0.053300
     19 C2A        -9.8830    2.6260    3.6800 cc        1 W01      0.544500
     20 N1A       -10.5130    2.4420    4.9610 nc        1 W01     -0.368000
     21 N3A       -10.8550    2.9390    2.7670 nd        1 W01     -0.489800
     22 N4A       -11.9860    2.9320    3.4980 na        1 W01      0.199900
     23 CM4       -13.3010    3.2210    2.9370 c3        1 W01      0.050600
     24 N5A       -11.7520    2.6320    4.8060 nd        1 W01     -0.147800
     25 HM31        3.1110    1.8270    0.3260 hc        1 W01      0.058367
     26 HM32        3.4460    1.2600    2.0200 hc        1 W01      0.058367
     27 HM33        3.9740    0.2530    0.6030 hc        1 W01      0.058367
     28 H4          0.5110    1.9030    1.8470 ha        1 W01      0.175000
     29 H1C1       -2.2900   -0.5610    0.6490 hc        1 W01      0.072700
     30 H1C2       -1.9510   -1.0160    2.3670 hc        1 W01      0.072700
     31 H2C1       -1.8830    1.4380    3.0000 hc        1 W01      0.063700
     32 H2C2       -2.2220    1.8910    1.2860 hc        1 W01      0.063700
     33 H3C1       -4.4100    0.6300    1.3670 h1        1 W01      0.039700
     34 H3C2       -4.0660    0.1590    3.1040 h1        1 W01      0.039700
     35 HM21       -5.0060    2.9520    5.8610 hc        1 W01      0.049867
     36 HM22       -4.3380    1.4550    5.0910 hc        1 W01      0.049867
     37 HM23       -5.7600    1.3410    6.2210 hc        1 W01      0.049867
     38 H3B        -7.9520    2.2260    5.5380 ha        1 W01      0.153500
     39 H5B        -8.6390    2.7460    1.2800 ha        1 W01      0.153500
     40 HM61       -6.6650    3.2960   -0.0940 hc        1 W01      0.049867
     41 HM62       -5.0040    2.8340    0.4780 hc        1 W01      0.049867
     42 HM63       -6.1850    1.5490   -0.0250 hc        1 W01      0.049867
     43 HM41      -14.0740    3.1390    3.7450 h1        1 W01      0.070367
     44 HM42      -13.5250    2.4830    2.1220 h1        1 W01      0.070367
     45 HM43      -13.3020    4.2600    2.5140 h1        1 W01      0.070367
@<TRIPOS>BOND
     1    1    2 1
     2    1    6 1
     3    2    3 2
     4    3    4 1
     5    3    5 1
     6    4   25 1
     7    4   26 1
     8    4   27 1
     9    5    6 2
    10    5   28 1
    11    6    7 1
    12    7    8 1
    13    7   29 1
    14    7   30 1
    15    8    9 1
    16    8   31 1
    17    8   32 1
    18    9   10 1
    19    9   33 1
    20    9   34 1
    21   10   11 1
    22   11   12 ar
    23   11   17 ar
    24   12   13 1
    25   12   14 ar
    26   13   35 1
    27   13   36 1
    28   13   37 1
    29   14   15 ar
    30   14   38 1
    31   15   16 ar
    32   15   19 1
    33   16   17 ar
    34   16   39 1
    35   17   18 1
    36   18   40 1
    37   18   41 1
    38   18   42 1
    39   19   20 1
    40   19   21 2
    41   20   24 2
    42   21   22 1
    43   22   23 1
    44   22   24 1
    45   23   43 1
    46   23   44 1
    47   23   45 1
@<TRIPOS>SUBSTRUCTURE
     1 W01         1 TEMP              0 ****  ****    0 ROOT
