@<TRIPOS>MOLECULE
W02
   45    47     1     0     0
SMALL
bcc


@<TRIPOS>ATOM
      1 O1          0.2240   -1.2940    0.8050 os        1 W02     -0.124100
      2 N2          1.5170   -1.0970    0.6450 nc        1 W02     -0.360300
      3 C3          1.8290    0.1530    1.0440 cd        1 W02      0.321600
      4 CM3         3.1640    0.7770    1.0330 c3        1 W02     -0.133400
      5 C4          0.6070    0.8190    1.5040 cd        1 W02     -0.361600
      6 C5         -0.3830   -0.1270    1.3380 cc        1 W02      0.263000
      7 C1C        -1.8300   -0.2030    1.5730 c3        1 W02     -0.117700
      8 C2C        -2.3900    1.1210    2.0490 c3        1 W02     -0.085400
      9 C3C        -3.8840    0.9970    2.2850 c3        1 W02      0.129400
     10 O1B        -4.3170    2.2900    2.7400 os        1 W02     -0.343900
     11 C1B        -5.6910    2.3610    2.9470 ca        1 W02      0.089100
     12 C2B        -6.1790    2.2830    4.2630 ca        1 W02     -0.070800
     13 CM2        -5.2670    2.0470    5.4060 c3        1 W02     -0.055300
     14 C3B        -7.5460    2.4540    4.4950 ca        1 W02     -0.120000
     15 C4B        -8.4170    2.7060    3.4190 ca        1 W02      0.028800
     16 C5B        -7.9170    2.7910    2.1070 ca        1 W02     -0.120000
     17 C6B        -6.5530    2.6150    1.8650 ca        1 W02     -0.070800
     18 CM6        -6.0410    2.7070    0.4780 c3        1 W02     -0.055300
     19 N2A        -9.8240    2.8820    3.6670 na        1 W02      0.264800
     20 N1A       -10.3530    3.2650    4.8690 nc        1 W02     -0.136800
     21 N3A       -10.7800    2.6900    2.7290 nc        1 W02     -0.484800
     22 C4A       -11.9360    2.9690    3.3950 cd        1 W02      0.489300
     23 CM4       -13.3170    2.9260    2.8700 c3        1 W02     -0.114400
     24 N5A       -11.6070    3.3290    4.7500 nd        1 W02     -0.370000
     25 HM33        3.9440    0.0900    0.6210 hc        1 W02      0.058367
     26 HM32        3.4520    1.0600    2.0760 hc        1 W02      0.058367
     27 HM31        3.1370    1.7040    0.4060 hc        1 W02      0.058367
     28 H4          0.5340    1.8310    1.8850 ha        1 W02      0.175000
     29 H1C2       -2.3400   -0.5190    0.6210 hc        1 W02      0.072700
     30 H1C1       -2.0330   -1.0040    2.3370 hc        1 W02      0.072700
     31 H2C2       -1.8860    1.4390    2.9990 hc        1 W02      0.063700
     32 H2C1       -2.1980    1.9220    1.2870 hc        1 W02      0.063700
     33 H3C2       -4.4270    0.7330    1.3390 h1        1 W02      0.039700
     34 H3C1       -4.1110    0.2330    3.0740 h1        1 W02      0.039700
     35 HM23       -4.9850    3.0250    5.8720 hc        1 W02      0.052700
     36 HM22       -5.7590    1.4140    6.1850 hc        1 W02      0.052700
     37 HM21       -4.3300    1.5400    5.0660 hc        1 W02      0.052700
     38 H3B        -7.9180    2.3900    5.5300 ha        1 W02      0.161500
     39 H5B        -8.5840    2.9960    1.2540 ha        1 W02      0.161500
     40 HM63       -6.1770    1.7280   -0.0470 hc        1 W02      0.052700
     41 HM62       -6.5930    3.4920   -0.0970 hc        1 W02      0.052700
     42 HM61       -4.9520    2.9630    0.4750 hc        1 W02      0.052700
     43 HM43      -13.9230    2.1970    3.4650 hc        1 W02      0.065367
     44 HM42      -13.3260    2.6160    1.7960 hc        1 W02      0.065367
     45 HM41      -13.7850    3.9390    2.9610 hc        1 W02      0.065367
@<TRIPOS>BOND
     1    1    2 1
     2    1    6 1
     3    2    3 2
     4    3    4 1
     5    3    5 1
     6    4   25 1
     7    4   26 1
     8    4   27 1
     9    5    6 2
    10    5   28 1
    11    6    7 1
    12    7    8 1
    13    7   29 1
    14    7   30 1
    15    8    9 1
    16    8   31 1
    17    8   32 1
    18    9   10 1
    19    9   33 1
    20    9   34 1
    21   10   11 1
    22   11   12 ar
    23   11   17 ar
    24   12   13 1
    25   12   14 ar
    26   13   35 1
    27   13   36 1
    28   13   37 1
    29   14   15 ar
    30   14   38 1
    31   15   16 ar
    32   15   19 1
    33   16   17 ar
    34   16   39 1
    35   17   18 1
    36   18   40 1
    37   18   41 1
    38   18   42 1
    39   19   20 1
    40   19   21 1
    41   20   24 2
    42   21   22 2
    43   22   23 1
    44   22   24 1
    45   23   43 1
    46   23   44 1
    47   23   45 1
@<TRIPOS>SUBSTRUCTURE
     1 W02         1 TEMP              0 ****  ****    0 ROOT
