@<TRIPOS>MOLECULE
W03
   46    48     1     0     0
SMALL
bcc


@<TRIPOS>ATOM
      1 O1          0.3030   -1.1260    0.5410 os        1 W03     -0.125100
      2 N2          1.5950   -0.9020    0.4200 nc        1 W03     -0.361300
      3 C3          1.8940    0.2940    0.9700 cd        1 W03      0.321600
      4 CM3         3.2230    0.9240    1.0480 c3        1 W03     -0.132400
      5 C4          0.6620    0.8890    1.4940 cd        1 W03     -0.362600
      6 C5         -0.3190   -0.0360    1.2050 cc        1 W03      0.265000
      7 C1C        -1.7670   -0.1510    1.4160 c3        1 W03     -0.118700
      8 C2C        -2.3480    1.1150    2.0100 c3        1 W03     -0.085400
      9 C3C        -3.8420    0.9510    2.2200 c3        1 W03      0.130400
     10 O1B        -4.2980    2.1910    2.7870 os        1 W03     -0.346900
     11 C1B        -5.6720    2.2140    3.0050 ca        1 W03      0.091100
     12 C2B        -6.1520    2.0020    4.3090 ca        1 W03     -0.083800
     13 CM2        -5.2310    1.6760    5.4220 c3        1 W03     -0.052300
     14 C3B        -7.5230    2.1270    4.5540 ca        1 W03     -0.109000
     15 C4B        -8.4070    2.4580    3.5190 ca        1 W03     -0.109500
     16 C5B        -7.9090    2.6670    2.2250 ca        1 W03     -0.109000
     17 C6B        -6.5440    2.5490    1.9530 ca        1 W03     -0.083800
     18 CM6        -6.0420    2.7770    0.5790 c3        1 W03     -0.052300
     19 C2A        -9.8310    2.5920    3.7650 cc        1 W03      0.295500
     20 C1A       -10.7870    3.1560    2.9210 cd        1 W03      0.156300
     21 N3A       -10.4760    2.1530    4.9450 nc        1 W03     -0.663000
     22 C4A       -11.7650    2.4500    4.7930 cd        1 W03      0.494700
     23 CM4       -12.9340    2.2430    5.6680 c3        1 W03     -0.125400
     24 O5A       -12.0220    3.0760    3.5530 os        1 W03     -0.384800
     25 HM33        4.0130    0.2970    0.5640 hc        1 W03      0.057700
     26 HM32        3.4990    1.0800    2.1210 hc        1 W03      0.057700
     27 HM31        3.1940    1.9190    0.5380 hc        1 W03      0.057700
     28 H4          0.5760    1.8480    1.9940 ha        1 W03      0.175000
     29 H1C2       -2.2640   -0.3790    0.4320 hc        1 W03      0.072700
     30 H1C1       -1.9680   -1.0240    2.0970 hc        1 W03      0.072700
     31 H2C2       -2.1600    1.9880    1.3310 hc        1 W03      0.062700
     32 H2C1       -1.8560    1.3470    2.9910 hc        1 W03      0.062700
     33 H3C2       -4.3730    0.7680    1.2490 h1        1 W03      0.038700
     34 H3C1       -4.0650    0.1140    2.9330 h1        1 W03      0.038700
     35 HM23       -5.7120    0.9730    6.1440 hc        1 W03      0.048533
     36 HM22       -4.9540    2.6120    5.9700 hc        1 W03      0.048533
     37 HM21       -4.2900    1.2100    5.0350 hc        1 W03      0.048533
     38 H3B        -7.9020    1.9610    5.5750 ha        1 W03      0.143500
     39 H5B        -8.5980    2.9280    1.4080 ha        1 W03      0.143500
     40 HM63       -4.9610    3.0640    0.5950 hc        1 W03      0.048533
     41 HM62       -6.1520    1.8440   -0.0300 hc        1 W03      0.048533
     42 HM61       -6.6200    3.5920    0.0760 hc        1 W03      0.048533
     43 H1A       -10.7910    3.6230    1.9430 h4        1 W03      0.066100
     44 HM43      -12.7820    2.7840    6.6350 hc        1 W03      0.070367
     45 HM42      -13.0590    1.1520    5.8790 hc        1 W03      0.070367
     46 HM41      -13.8560    2.6310    5.1700 hc        1 W03      0.070367
@<TRIPOS>BOND
     1    1    2 1
     2    1    6 1
     3    2    3 2
     4    3    4 1
     5    3    5 1
     6    4   25 1
     7    4   26 1
     8    4   27 1
     9    5    6 2
    10    5   28 1
    11    6    7 1
    12    7    8 1
    13    7   29 1
    14    7   30 1
    15    8    9 1
    16    8   31 1
    17    8   32 1
    18    9   10 1
    19    9   33 1
    20    9   34 1
    21   10   11 1
    22   11   12 ar
    23   11   17 ar
    24   12   13 1
    25   12   14 ar
    26   13   35 1
    27   13   36 1
    28   13   37 1
    29   14   15 ar
    30   14   38 1
    31   15   16 ar
    32   15   19 1
    33   16   17 ar
    34   16   39 1
    35   17   18 1
    36   18   40 1
    37   18   41 1
    38   18   42 1
    39   19   20 2
    40   19   21 1
    41   20   24 1
    42   20   43 1
    43   21   22 2
    44   22   23 1
    45   22   24 1
    46   23   44 1
    47   23   45 1
    48   23   46 1
@<TRIPOS>SUBSTRUCTURE
     1 W03         1 TEMP              0 ****  ****    0 ROOT
