@<TRIPOS>MOLECULE
molecule
   42    41     1     0     0
SMALL
bcc


@<TRIPOS>ATOM
      1 C1           0.0000     0.0000     0.0000 c          1 W05       0.867600
      2 C2           1.5150     0.0000     0.0000 c3         1 W05      -0.006500
      3 C3           2.0950     0.0000     1.4220 c3         1 W05      -0.082400
      4 C4           1.6460     1.1810     2.2920 c3         1 W05      -0.074400
      5 C7           2.2240     1.0770     3.7040 c3         1 W05      -0.161400
      6 C10          1.7630     2.2080     4.6040 c          1 W05       0.673100
      7 N11          2.2970     2.0960     5.8800 ns         1 W05      -0.569900
      8 C12          2.0040     3.0550     6.9200 c3         1 W05       0.041700
      9 C13          3.2440     3.2270     7.7960 c          1 W05       0.653100
     10 N14          1.9730     1.1590    -0.7660 nz         1 W05      -0.796600
     11 O15          1.0090     3.1030     4.2320 o          1 W05      -0.604100
     12 C16          0.7460     2.6890     7.7120 c3         1 W05       0.037700
     13 S17          0.8820     1.1150     8.6190 sh         1 W05      -0.423900
     14 O18          4.2560     2.5420     7.6660 o          1 W05      -0.622100
     15 O19         -0.4750    -1.1140     0.6160 o          1 W05      -0.777800
     16 O20         -0.7250     0.8550    -0.4880 o          1 W05      -0.777800
     17 N29          3.0750     4.2160     8.7550 ns         1 W05      -0.550900
     18 C30          4.0970     4.5490     9.7190 c3         1 W05       0.005700
     19 C31          3.9860     6.0250    10.0050 c          1 W05       0.883600
     20 C32          3.8930     3.7150    10.9720 c3         1 W05      -0.092100
     21 O42          5.2090     6.5500    10.2770 o          1 W05      -0.841800
     22 O43          2.9560     6.6820    10.0180 o          1 W05      -0.841800
     23 H2           1.8550    -0.8960    -0.5040 hx         1 W05       0.094700
     24 H3C1         3.1760     0.0190     1.3510 hc         1 W05       0.064200
     25 H3C2         1.7990    -0.9190     1.9130 hc         1 W05       0.064200
     26 H4C1         0.5640     1.1880     2.3510 hc         1 W05       0.059700
     27 H4C2         1.9830     2.1050     1.8380 hc         1 W05       0.059700
     28 H7C1         1.9150     0.1340     4.1390 hc         1 W05       0.064700
     29 H7C2         3.3050     1.0970     3.6420 hc         1 W05       0.064700
     30 H11          2.9030     1.3270     6.0870 hn         1 W05       0.340500
     31 H12          1.8150     4.0060     6.4380 h1         1 W05       0.095700
     32 H141         1.5700     1.9920    -0.3840 hn         1 W05       0.436800
     33 H142         2.9710     1.2180    -0.7170 hn         1 W05       0.436800
     34 H161         0.5430     3.4810     8.4230 h1         1 W05       0.068200
     35 H162        -0.0870     2.6200     7.0230 h1         1 W05       0.068200
     36 H29          2.2110     4.7200     8.7780 hn         1 W05       0.325500
     37 H30          5.0730     4.3350     9.2990 h1         1 W05       0.081700
     38 H321         4.6330     3.9890    11.7130 hc         1 W05       0.029700
     39 H322         3.9990     2.6650    10.7280 hc         1 W05       0.029700
     40 H323         2.9010     3.8950    11.3680 hc         1 W05       0.029700
     41 HS1         -0.2980     0.8000     9.1390 hs         1 W05       0.209800
     42 H143         1.7000     1.0550    -1.7230 hn         1 W05       0.436800
@<TRIPOS>BOND
     1     1     2 1
     2     1    15 1
     3     1    16 1
     4     2     3 1
     5     2    10 1
     6     2    23 1
     7     3     4 1
     8     3    24 1
     9     3    25 1
    10     4     5 1
    11     4    26 1
    12     4    27 1
    13     5     6 1
    14     5    28 1
    15     5    29 1
    16     6     7 1
    17     6    11 2
    18     7     8 1
    19     7    30 1
    20     8     9 1
    21     8    12 1
    22     8    31 1
    23     9    14 2
    24     9    17 1
    25    10    32 1
    26    10    33 1
    27    12    13 1
    28    12    34 1
    29    12    35 1
    30    17    18 1
    31    17    36 1
    32    18    19 1
    33    18    20 1
    34    18    37 1
    35    19    21 1
    36    19    22 1
    37    20    38 1
    38    20    39 1
    39    20    40 1
    40    41    13 1
    41    42    10 1
@<TRIPOS>SUBSTRUCTURE
     1 W05         1 TEMP              0 ****  ****    0 ROOT
