@<TRIPOS>MOLECULE
W06
   43    44     1     0     0
SMALL
bcc


@<TRIPOS>ATOM
      1 FAW          0.0000     0.0000     0.0000 f          1 W06      -0.183633
      2 CAV          1.3990     0.0000     0.0000 c3         1 W06       0.549900
      3 FAX          1.8660     0.0000     1.3180 f          1 W06      -0.183633
      4 FAY          1.8650    -1.1410    -0.6610 f          1 W06      -0.183633
      5 CAU          1.9080     1.2500    -0.7210 c3         1 W06       0.307600
      6 FAZ          1.4400     1.2510    -2.0400 f          1 W06      -0.164300
      7 FBA          1.4420     2.3920    -0.0610 f          1 W06      -0.164300
      8 CAT          3.4380     1.2510    -0.7220 c3         1 W06       0.307600
      9 FBB          3.9050     1.2500     0.5970 f          1 W06      -0.172300
     10 FBC          3.9050     0.1090    -1.3830 f          1 W06      -0.172300
     11 CAS          3.9470     2.5010    -1.4430 c3         1 W06       0.351600
     12 FBD          3.4800     2.5020    -2.7620 f          1 W06      -0.165800
     13 FBE          3.4800     3.6420    -0.7830 f          1 W06      -0.165800
     14 CAR          5.4770     2.5020    -1.4440 c3         1 W06       0.266600
     15 FBF          5.9440     2.5010    -0.1250 f          1 W06      -0.197800
     16 FBG          5.9430     1.3600    -2.1050 f          1 W06      -0.197800
     17 CAP          5.9790     3.7330    -2.1540 c          1 W06       0.518100
     18 OAQ          5.2820     4.7240    -2.2140 o          1 W06      -0.617100
     19 N            7.2000     3.7310    -2.7230 ns         1 W06      -0.065900
     20 CA           7.6870     4.9290    -3.4130 c3         1 W06      -0.106300
     21 C            7.1840     4.9290    -4.8340 c          1 W06       0.972600
     22 O            6.4900     4.0230    -5.2300 o          1 W06      -0.881300
     23 OXT          7.5070     5.9360    -5.6610 o          1 W06      -0.881300
     24 CB           9.2170     4.9290    -3.4150 c3         1 W06       0.066800
     25 CG           9.7200     5.0520    -2.0000 cc         1 W06      -0.128400
     26 CD2          9.9210     3.9570    -1.0480 ca         1 W06      -0.075800
     27 CE3          9.7370     2.5740    -1.1060 ca         1 W06      -0.053000
     28 CZ3         10.0240     1.8050    -0.0150 ca         1 W06      -0.156000
     29 CH2         10.4960     2.3870     1.1540 ca         1 W06      -0.112000
     30 CZ2         10.6850     3.7490     1.2340 ca         1 W06      -0.107000
     31 CE2         10.3990     4.5510     0.1340 ca         1 W06      -0.224200
     32 NE1         10.4780     5.9070    -0.0960 na         1 W06       0.342600
     33 CD1         10.0750     6.1850    -1.3740 cd         1 W06      -0.273100
     34 H1           7.7470     2.8930    -2.7290 hn         1 W06       0.171500
     35 H2           7.3260     5.8120    -2.9020 h1         1 W06       0.060700
     36 H4           9.5790     4.0040    -3.8470 hc         1 W06       0.034200
     37 H5           9.5780     5.7660    -4.0000 hc         1 W06       0.034200
     38 H6           9.8720     1.8670    -1.9150 ha         1 W06       0.113000
     39 H7          10.0110     0.7220    -0.0130 ha         1 W06       0.098000
     40 H8          10.7460     1.7530     1.9960 ha         1 W06       0.091000
     41 H9          11.0600     4.1190     2.1800 ha         1 W06       0.092000
     42 H10         10.7910     6.5860     0.5690 hn         1 W06       0.106700
     43 H11         10.0470     7.1740    -1.8160 h4         1 W06       0.147000
@<TRIPOS>BOND
     1     1     2 1   
     2     2     3 1   
     3     2     4 1   
     4     2     5 1   
     5     5     6 1   
     6     5     7 1   
     7     5     8 1   
     8     8     9 1   
     9     8    10 1   
    10     8    11 1   
    11    11    12 1   
    12    11    13 1   
    13    11    14 1   
    14    14    15 1   
    15    14    16 1   
    16    14    17 1   
    17    17    18 2   
    18    17    19 1   
    19    19    20 1   
    20    19    34 1   
    21    20    21 1   
    22    20    24 1   
    23    20    35 1   
    24    21    22 1   
    25    21    23 1   
    26    24    25 1   
    27    24    36 1   
    28    24    37 1   
    29    25    26 1   
    30    25    33 2   
    31    26    27 ar  
    32    26    31 ar  
    33    27    28 ar  
    34    27    38 1   
    35    28    29 ar  
    36    28    39 1   
    37    29    30 ar  
    38    29    40 1   
    39    30    31 ar  
    40    30    41 1   
    41    31    32 1   
    42    32    33 1   
    43    32    42 1   
    44    33    43 1   
@<TRIPOS>SUBSTRUCTURE
     1 W06         1 TEMP              0 ****  ****    0 ROOT
