@<TRIPOS>MOLECULE
molecule
   43    44     1     0     0
SMALL
bcc


@<TRIPOS>ATOM
      1 FAW          0.0000     0.0000     0.0000 f          1 W06      -0.199300
      2 CAV          1.3990     0.0000     0.0000 c3         1 W06       0.584900
      3 FAX          1.8660     0.0000     1.3180 f          1 W06      -0.199300
      4 FAY          1.8650    -1.1410    -0.6610 f          1 W06      -0.199300
      5 CAU          1.9080     1.2500    -0.7210 c3         1 W06       0.329600
      6 FAZ          1.4400     1.2510    -2.0400 f          1 W06      -0.173300
      7 FBA          1.4420     2.3920    -0.0610 f          1 W06      -0.173300
      8 CAT          3.4380     1.2510    -0.7220 c3         1 W06       0.320600
      9 FBB          3.9050     1.2500     0.5970 f          1 W06      -0.180300
     10 FBC          3.9050     0.1090    -1.3830 f          1 W06      -0.180300
     11 CAS          3.9470     2.5010    -1.4430 c3         1 W06       0.361600
     12 FBD          3.4800     2.5020    -2.7620 f          1 W06      -0.169300
     13 FBE          3.4800     3.6420    -0.7830 f          1 W06      -0.169300
     14 CAR          5.4770     2.5020    -1.4440 c3         1 W06       0.293600
     15 FBF          5.9440     2.5010    -0.1250 f          1 W06      -0.207300
     16 FBG          5.9430     1.3600    -2.1050 f          1 W06      -0.207300
     17 CAP          5.9790     3.7330    -2.1540 c          1 W06       0.634100
     18 OAQ          5.2820     4.7240    -2.2140 o          1 W06      -0.573100
     19 N            7.2000     3.7310    -2.7230 ns         1 W06      -0.501900
     20 CA           7.6870     4.9290    -3.4130 c3         1 W06       0.009700
     21 C            7.1840     4.9290    -4.8340 c          1 W06       0.882600
     22 O            6.4900     4.0230    -5.2300 o          1 W06      -0.831300
     23 OXT          7.5070     5.9360    -5.6610 o          1 W06      -0.831300
     24 CB           9.2170     4.9290    -3.4150 c3         1 W06      -0.006200
     25 CG           9.7200     5.0520    -2.0000 cc         1 W06      -0.129400
     26 CD2          9.9210     3.9570    -1.0480 ca         1 W06      -0.075800
     27 CE3          9.7370     2.5740    -1.1060 ca         1 W06      -0.082000
     28 CZ3         10.0240     1.8050    -0.0150 ca         1 W06      -0.178000
     29 CH2         10.4960     2.3870     1.1540 ca         1 W06      -0.132000
     30 CZ2         10.6850     3.7490     1.2340 ca         1 W06      -0.148000
     31 CE2         10.3990     4.5510     0.1340 ca         1 W06      -0.038200
     32 NE1         10.4780     5.9070    -0.0960 na         1 W06      -0.190400
     33 CD1         10.0750     6.1850    -1.3740 cd         1 W06      -0.113100
     34 H1           7.7470     2.8930    -2.7290 hn         1 W06       0.316500
     35 H2           7.3260     5.8120    -2.9020 h1         1 W06       0.078700
     36 H4           9.5790     4.0040    -3.8470 hc         1 W06       0.065700
     37 H5           9.5780     5.7660    -4.0000 hc         1 W06       0.065700
     38 H6           9.8720     1.8670    -1.9150 ha         1 W06       0.137000
     39 H7          10.0110     0.7220    -0.0130 ha         1 W06       0.120000
     40 H8          10.7460     1.7530     1.9960 ha         1 W06       0.116000
     41 H9          11.0600     4.1190     2.1800 ha         1 W06       0.115000
     42 H10         10.7910     6.5860     0.5690 hn         1 W06       0.286700
     43 H11         10.0470     7.1740    -1.8160 h4         1 W06       0.171000
@<TRIPOS>BOND
     1     4     2 1
     2     1     2 1
     3     2     3 1
     4     2     5 1
     5     6     5 1
     6     5     7 1
     7     5     8 1
     8     9     8 1
     9     8    10 1
    10     8    11 1
    11    16    14 1
    12    13    11 1
    13    11    14 1
    14    11    12 1
    15    18    17 2
    16    14    17 1
    17    14    15 1
    18    17    19 1
    19    19    20 1
    20    20    21 1
    21    20    24 1
    22    22    21 1
    23    21    23 1
    24    24    25 1
    25    25    33 2
    26    25    26 1
    27    33    32 1
    28    27    26 ar
    29    27    28 ar
    30    26    31 ar
    31    32    31 1
    32    28    29 ar
    33    31    30 ar
    34    29    30 ar
    35    19    34 1
    36    20    35 1
    37    24    36 1
    38    24    37 1
    39    27    38 1
    40    28    39 1
    41    29    40 1
    42    30    41 1
    43    32    42 1
    44    33    43 1
@<TRIPOS>SUBSTRUCTURE
     1 W06         1 TEMP              0 ****  ****    0 ROOT
