@<TRIPOS>MOLECULE
W07
   63    63     1     0     0
SMALL
bcc


@<TRIPOS>ATOM
      1 C4         -0.6360    0.3240    0.1020 c2        1 W07      0.022000
      2 C3         -2.4690    1.3040   -1.0580 c3        1 W07     -0.076000
      3 C2         -1.9190   -2.5320   -3.2320 c1        1 W07     -0.010000
      4 C5          0.5980   -0.2000   -0.0990 c2        1 W07     -0.171000
      5 C6          1.5630   -0.2340    0.9750 c2        1 W07     -0.099000
      6 C9         -1.1030    0.9270    1.3840 c3        1 W07     -0.097000
      7 C8         -0.0990    0.8140    2.4610 c2        1 W07     -0.064000
      8 C1         -3.1850   -2.2020   -2.5060 c3        1 W07     -0.135000
      9 C11         3.2270    1.2960    3.2230 c3        1 W07     -0.203000
     10 C13         1.0650    0.8530    4.5220 c3        1 W07     -0.065000
     11 C16        -0.7490    3.0220    5.3220 c2        1 W07      0.273000
     12 C17        -1.2750    1.9080    4.4490 c3        1 W07     -0.163000
     13 C18        -0.1940    1.1930    3.7570 c2        1 W07     -0.112000
     14 C19        -0.9900    7.3860    5.8510 c2        1 W07     -0.346000
     15 C20        -0.0300    7.1390    6.7560 c2        1 W07      0.053000
     16 C21         0.9730    8.1560    7.2450 c3        1 W07     -0.012000
     17 O01        -4.3000   -2.1690   -3.3720 oh        1 W07     -0.313000
     18 O02        -0.7880   -2.1180   -2.7860 oh        1 W07     -0.146000
     19 O03        -1.5460    0.2230   -0.9420 os        1 W07     -0.253000
     20 C7          1.2280    0.2450    2.1880 c2        1 W07     -0.081000
     21 C12         2.6060   -1.0300    3.8350 c3        1 W07     -0.203000
     22 C14         1.5080    2.0070    5.3420 c2        1 W07     -0.068000
     23 C15         0.6670    2.9790    5.7200 c2        1 W07     -0.246000
     24 O04        -1.5020    3.9330    5.6970 o         1 W07     -0.319000
     25 O05         0.1390    5.9000    7.3380 oh        1 W07     -0.286000
     26 C22         1.9330    7.5460    8.2580 c3        1 W07     -0.200333
     27 C23         1.7720    8.6780    6.0560 c3        1 W07     -0.200333
     28 C24         0.2260    9.3120    7.9020 c3        1 W07     -0.200333
     29 H1         -3.1900    1.2880   -0.2050 h1        1 W07      0.088000
     30 H2         -1.9320    2.2820   -1.0990 h1        1 W07      0.088000
     31 H3         -2.9960    1.1010   -2.0250 h1        1 W07      0.088000
     32 H4          0.8930   -0.6160   -1.0740 ha        1 W07      0.147000
     33 H5          2.5580   -0.6510    0.7610 ha        1 W07      0.141000
     34 H6         -1.3490    2.0150    1.2140 hc        1 W07      0.111500
     35 H7         -2.0590    0.4200    1.6980 hc        1 W07      0.111500
     36 H8         -3.1700   -1.1910   -2.0060 h1        1 W07      0.100500
     37 H9         -3.3490   -2.9930   -1.7170 h1        1 W07      0.100500
     38 H10         2.8530    2.3390    3.0880 hc        1 W07      0.081333
     39 H11         3.9250    1.2720    4.0940 hc        1 W07      0.081333
     40 H12         3.7950    0.9990    2.3080 hc        1 W07      0.081333
     41 H13        -1.8430    1.1950    5.1130 hc        1 W07      0.123000
     42 H14        -2.0110    2.3320    3.7130 hc        1 W07      0.123000
     43 H15         1.0000    3.8200    6.3550 ha        1 W07      0.165000
     44 H16        -1.1150    8.3730    5.3950 ha        1 W07      0.126500
     45 H17        -1.6940    6.6090    5.5260 ha        1 W07      0.126500
     46 H18        -4.1530   -2.8370   -4.0560 ho        1 W07      0.217000
     47 H19        -0.8120   -1.5560   -1.9750 ho        1 W07      0.181000
     48 H20         3.3000   -1.4070    3.0450 hc        1 W07      0.081333
     49 H21         1.7720   -1.7620    3.9540 hc        1 W07      0.081333
     50 H22         3.1640   -0.9620    4.8000 hc        1 W07      0.081333
     51 H23         0.8370    0.0040    5.2330 hc        1 W07      0.121000
     52 H24         2.5630    2.0100    5.6600 ha        1 W07      0.140000
     53 H25        -0.5750    5.3190    7.0230 ho        1 W07      0.235000
     54 H26         2.4920    6.6980    7.7950 hc        1 W07      0.077222
     55 H27         2.6610    8.3170    8.6050 hc        1 W07      0.077222
     56 H28         1.3670    7.1550    9.1370 hc        1 W07      0.077222
     57 H29         2.5040    9.4470    6.4000 hc        1 W07      0.077222
     58 H30         1.0910    9.1430    5.3020 hc        1 W07      0.077222
     59 H31         2.3300    7.8440    5.5690 hc        1 W07      0.077222
     60 H32         0.9530   10.0840    8.2490 hc        1 W07      0.077222
     61 H33        -0.4790    9.7830    7.1760 hc        1 W07      0.077222
     62 H34        -0.3560    8.9450    8.7810 hc        1 W07      0.077222
     63 C10         2.0700    0.3360    3.4420 c3        1 W07     -0.002000
@<TRIPOS>BOND
     1    1    4 1   
     2    1    6 1   
     3    1   19 1   
     4    2   19 1   
     5    2   29 1   
     6    2   30 1   
     7    2   31 1   
     8    3    8 1   
     9    3   18 1   
    10    4    5 1   
    11    4   32 1   
    12    5   20 1   
    13    5   33 1   
    14    6    7 1   
    15    6   34 1   
    16    6   35 1   
    17    7   13 1   
    18    7   20 1   
    19    8   17 1   
    20    8   36 1   
    21    8   37 1   
    22    9   38 1   
    23    9   39 1   
    24    9   40 1   
    25    9   63 1   
    26   10   13 1   
    27   10   22 1   
    28   10   51 1   
    29   10   63 1   
    30   11   12 1   
    31   11   23 1   
    32   11   24 1   
    33   12   13 1   
    34   12   41 1   
    35   12   42 1   
    36   14   15 1   
    37   14   44 1   
    38   14   45 1   
    39   15   16 1   
    40   15   25 1   
    41   16   26 1   
    42   16   27 1   
    43   16   28 1   
    44   17   46 1   
    45   18   47 1   
    46   20   63 1   
    47   21   48 1   
    48   21   49 1   
    49   21   50 1   
    50   21   63 1   
    51   22   23 1   
    52   22   52 1   
    53   23   43 1   
    54   25   53 1   
    55   26   54 1   
    56   26   55 1   
    57   26   56 1   
    58   27   57 1   
    59   27   58 1   
    60   27   59 1   
    61   28   60 1   
    62   28   61 1   
    63   28   62 1   
@<TRIPOS>SUBSTRUCTURE
     1 W07         1 TEMP              0 ****  ****    0 ROOT
