@<TRIPOS>MOLECULE
molecule
   63    64     1     0     0
SMALL
bcc


@<TRIPOS>ATOM
      1 C4           0.0000     0.0000     0.0000 ca         1 W07       0.141100
      2 C3          -2.1080     0.0050    -1.0990 c3         1 W07       0.128400
      3 C2          -2.6940     0.0120    -2.5130 c3         1 W07       0.152100
      4 C5           1.3870     0.0000     0.0000 ca         1 W07      -0.190000
      5 C6           2.0770     0.0000     1.1970 ca         1 W07      -0.086000
      6 C9          -0.6910    -0.0010     1.2030 ca         1 W07      -0.190000
      7 C8           0.0040    -0.0020     2.3980 ca         1 W07      -0.086000
      8 C1          -4.2170     0.1380    -2.4330 c3         1 W07       0.129400
      9 C11          3.6390     0.1340     3.4220 c3         1 W07      -0.081100
     10 C13          1.6800     1.1560     4.5460 ca         1 W07      -0.112300
     11 C16          0.8350     3.2820     6.1020 ca         1 W07       0.143100
     12 C17          0.7710     1.9880     6.5990 ca         1 W07      -0.190500
     13 C18          1.1950     0.9290     5.8210 ca         1 W07      -0.086500
     14 C19          0.5130     5.6300     6.2890 c3         1 W07       0.113400
     15 C20          0.0030     6.6690     7.2890 c3         1 W07       0.161100
     16 C21          0.2180     8.0730     6.7220 c3         1 W07      -0.070000
     17 O01         -4.7550     0.2610    -3.7500 oh         1 W07      -0.604800
     18 O02         -2.3500    -1.2040    -3.1780 oh         1 W07      -0.589800
     19 O03         -0.6810     0.0060    -1.1760 os         1 W07      -0.325900
     20 C7           1.3860    -0.0010     2.3940 ca         1 W07      -0.111300
     21 C12          1.8760    -1.3130     4.4410 c3         1 W07      -0.081100
     22 C14          1.7480     2.4450     4.0500 ca         1 W07      -0.086500
     23 C15          1.3270     3.5080     4.8250 ca         1 W07      -0.190500
     24 O04          0.4190     4.3260     6.8660 os         1 W07      -0.335900
     25 O05         -1.3920     6.4580     7.5260 oh         1 W07      -0.600800
     26 C22         -0.2930     9.1110     7.7230 c3         1 W07      -0.083767
     27 C23          1.7100     8.2980     6.4690 c3         1 W07      -0.083767
     28 C24         -0.5500     8.2140     5.4050 c3         1 W07      -0.083767
     29 H1          -2.4410     0.8870    -0.5660 h1         1 W07       0.044700
     30 H2          -2.4410    -0.8820    -0.5740 h1         1 W07       0.044700
     31 H3          -2.2910     0.8520    -3.0660 h1         1 W07       0.054700
     32 H4           1.9290     0.0010    -0.9380 ha         1 W07       0.137500
     33 H5           3.1610    -0.0000     1.1970 ha         1 W07       0.138500
     34 H6          -1.7740    -0.0020     1.2060 ha         1 W07       0.137500
     35 H7          -0.5350    -0.0030     3.3370 ha         1 W07       0.138500
     36 H8          -4.6270    -0.7440    -1.9560 h1         1 W07       0.030200
     37 H9          -4.4770     1.0150    -1.8530 h1         1 W07       0.030200
     38 H10          3.9920    -0.7490     2.9020 hc         1 W07       0.039033
     39 H11          3.8150     1.0090     2.8070 hc         1 W07       0.039033
     40 H12          4.1720     0.2380     4.3590 hc         1 W07       0.039033
     41 H13          0.3900     1.8090     7.5970 ha         1 W07       0.137500
     42 H14          1.1460    -0.0810     6.2090 ha         1 W07       0.138000
     43 H15          1.5460     5.8420     6.0430 h1         1 W07       0.048200
     44 H16         -0.0880     5.6700     5.3890 h1         1 W07       0.048200
     45 H17          0.5460     6.5690     8.2210 h1         1 W07       0.043700
     46 H18         -5.6750     0.4610    -3.6960 ho         1 W07       0.406000
     47 H19         -1.8940    -1.0070    -3.9790 ho         1 W07       0.413000
     48 H20          0.8350    -1.3580     4.7350 hc         1 W07       0.039033
     49 H21          2.1030    -2.1480     3.7890 hc         1 W07       0.039033
     50 H22          2.5030    -1.3640     5.3230 hc         1 W07       0.039033
     51 H23          2.1330     2.6220     3.0530 ha         1 W07       0.138000
     52 H24          1.3790     4.5180     4.4350 ha         1 W07       0.137500
     53 H25         -1.5080     6.0160     8.3500 ho         1 W07       0.409000
     54 H26         -0.0560    10.1060     7.3640 hc         1 W07       0.039589
     55 H27          0.1830     8.9520     8.6830 hc         1 W07       0.039589
     56 H28         -1.3660     9.0120     7.8310 hc         1 W07       0.039589
     57 H29          1.9110     9.3610     6.4130 hc         1 W07       0.039589
     58 H30          1.9930     7.8270     5.5350 hc         1 W07       0.039589
     59 H31          2.2830     7.8640     7.2800 hc         1 W07       0.039589
     60 H32         -1.5270     7.7580     5.5060 hc         1 W07       0.039589
     61 H33         -0.0010     7.7190     4.6130 hc         1 W07       0.039589
     62 H34         -0.6640     9.2640     5.1640 hc         1 W07       0.039589
     63 C10          2.1410    -0.0010     3.6990 c3         1 W07       0.036600
@<TRIPOS>BOND
     1    18     3 1
     2    17     8 1
     3     8     3 1
     4     2     3 1
     5     2    19 1
     6    19     1 1
     7     1     4 ar
     8     1     6 ar
     9     4     5 ar
    10     6     7 ar
    11     5    20 ar
    12     7    20 ar
    13    20    63 1
    14     9    63 1
    15    63    10 1
    16    63    21 1
    17    26    16 1
    18    10    13 ar
    19    10    22 ar
    20    13    12 ar
    21    22    23 ar
    22    27    16 1
    23    12    11 ar
    24    23    11 ar
    25    11    24 1
    26    16    28 1
    27    16    15 1
    28    24    14 1
    29    14    15 1
    30    15    25 1
    31     2    29 1
    32     2    30 1
    33     3    31 1
    34     4    32 1
    35     5    33 1
    36     6    34 1
    37     7    35 1
    38     8    36 1
    39     8    37 1
    40     9    38 1
    41     9    39 1
    42     9    40 1
    43    12    41 1
    44    13    42 1
    45    14    43 1
    46    14    44 1
    47    15    45 1
    48    17    46 1
    49    18    47 1
    50    21    48 1
    51    21    49 1
    52    21    50 1
    53    22    51 1
    54    23    52 1
    55    25    53 1
    56    26    54 1
    57    26    55 1
    58    26    56 1
    59    27    57 1
    60    27    58 1
    61    27    59 1
    62    28    60 1
    63    28    61 1
    64    28    62 1
@<TRIPOS>SUBSTRUCTURE
     1 W07         1 TEMP              0 ****  ****    0 ROOT
