@<TRIPOS>MOLECULE
W09
   52    53     1     0     0
SMALL
bcc


@<TRIPOS>ATOM
      1 FBN          0.0000     0.0000     0.0000 f          1 W09      -0.179633
      2 CAY          1.3990     0.0000     0.0000 c3         1 W09       0.555900
      3 FBO          1.8650     0.0000     1.3190 f          1 W09      -0.179633
      4 FBP          1.8650    -1.1420    -0.6600 f          1 W09      -0.179633
      5 CAX          1.9090     1.2490    -0.7220 c3         1 W09       0.303600
      6 FBL          1.4420     2.3920    -0.0620 f          1 W09      -0.164800
      7 FBM          3.3080     1.2490    -0.7220 f          1 W09      -0.164800
      8 CAW          1.3980     1.2500    -2.1640 c3         1 W09       0.321600
      9 FBJ          1.8640     0.1070    -2.8230 f          1 W09      -0.163800
     10 FBK         -0.0000     1.2500    -2.1640 f          1 W09      -0.163800
     11 CAV          1.9090     2.4980    -2.8860 c3         1 W09       0.320600
     12 FBH          1.4430     3.6410    -2.2250 f          1 W09      -0.166300
     13 FBI          3.3080     2.4980    -2.8860 f          1 W09      -0.166300
     14 CAU          1.3980     2.4990    -4.3280 c3         1 W09       0.326600
     15 FBF          1.8640     1.3560    -4.9880 f          1 W09      -0.163800
     16 FBG         -0.0000     2.4990    -4.3280 f          1 W09      -0.163800
     17 CAT          1.9090     3.7470    -5.0490 c3         1 W09       0.310600
     18 FBD          1.4430     4.8900    -4.3900 f          1 W09      -0.171300
     19 FBE          3.3070     3.7470    -5.0490 f          1 W09      -0.171300
     20 CAS          1.3980     3.7480    -6.4920 c3         1 W09       0.351600
     21 FBB          1.8640     2.6050    -7.1510 f          1 W09      -0.164800
     22 FBC         -0.0010     3.7480    -6.4910 f          1 W09      -0.164800
     23 CAR          1.9090     4.9970    -7.2130 c3         1 W09       0.265600
     24 FAZ          1.4430     6.1390    -6.5530 f          1 W09      -0.197300
     25 FBA          3.3070     4.9970    -7.2130 f          1 W09      -0.197300
     26 CAP          1.4060     4.9970    -8.6340 c          1 W09       0.519100
     27 OAQ          0.3920     4.3950    -8.9180 o          1 W09      -0.613100
     28 N            2.0830     5.6670    -9.5880 ns         1 W09      -0.071900
     29 CA           1.5940     5.6670   -10.9690 c3         1 W09      -0.106300
     30 C            2.0960     4.4370   -11.6790 c          1 W09       0.972600
     31 OXT          1.7720     4.2230   -12.9640 o          1 W09      -0.880800
     32 O            2.7910     3.6410   -11.0930 o          1 W09      -0.880800
     33 CB           2.1040     6.9160   -11.6900 c3         1 W09       0.065800
     34 CG           1.5030     8.1430   -11.0540 cc         1 W09      -0.128400
     35 CD2          2.0140     8.8560    -9.8810 ca         1 W09      -0.099800
     36 CE3          3.1090     8.6720    -9.0350 ca         1 W09      -0.046000
     37 CZ3          3.3170     9.5360    -7.9980 ca         1 W09      -0.141000
     38 CH2          2.4480    10.5960    -7.7780 ca         1 W09      -0.094000
     39 CZ2          1.3620    10.7960    -8.6010 ca         1 W09      -0.111000
     40 CE2          1.1310     9.9290    -9.6630 ca         1 W09      -0.226200
     41 NE1          0.1600     9.8600   -10.6370 na         1 W09       0.342600
     42 CD1          0.4010     8.7940   -11.4600 cd         1 W09      -0.273100
     43 H1           2.9510     6.1130    -9.3650 hn         1 W09       0.169500
     44 H2           0.5100     5.6680   -10.9680 h1         1 W09       0.061700
     45 H4           3.1840     6.9610   -11.6140 hc         1 W09       0.034700
     46 H5           1.8170     6.8730   -12.7340 hc         1 W09       0.034700
     47 H6           3.7910     7.8460    -9.2010 ha         1 W09       0.107000
     48 H7           4.1670     9.3930    -7.3410 ha         1 W09       0.098000
     49 H8           2.6270    11.2730    -6.9510 ha         1 W09       0.092000
     50 H9           0.6900    11.6260    -8.4210 ha         1 W09       0.091000
     51 H10         -0.6040    10.4990   -10.7340 hn         1 W09       0.105700
     52 H11         -0.2070     8.5170   -12.3130 h4         1 W09       0.147000
@<TRIPOS>BOND
     1     1     2 1   
     2     2     3 1   
     3     2     4 1   
     4     2     5 1   
     5     5     6 1   
     6     5     7 1   
     7     5     8 1   
     8     8     9 1   
     9     8    10 1   
    10     8    11 1   
    11    11    12 1   
    12    11    13 1   
    13    11    14 1   
    14    14    15 1   
    15    14    16 1   
    16    14    17 1   
    17    17    18 1   
    18    17    19 1   
    19    17    20 1   
    20    20    21 1   
    21    20    22 1   
    22    20    23 1   
    23    23    24 1   
    24    23    25 1   
    25    23    26 1   
    26    26    27 2   
    27    26    28 1   
    28    28    29 1   
    29    28    43 1   
    30    29    30 1   
    31    29    33 1   
    32    29    44 1   
    33    30    31 1   
    34    30    32 1   
    35    33    34 1   
    36    33    45 1   
    37    33    46 1   
    38    34    35 1   
    39    34    42 2   
    40    35    36 ar  
    41    35    40 ar  
    42    36    37 ar  
    43    36    47 1   
    44    37    38 ar  
    45    37    48 1   
    46    38    39 ar  
    47    38    49 1   
    48    39    40 ar  
    49    39    50 1   
    50    40    41 1   
    51    41    42 1   
    52    41    51 1   
    53    42    52 1   
@<TRIPOS>SUBSTRUCTURE
     1 W09         1 TEMP              0 ****  ****    0 ROOT
