@<TRIPOS>MOLECULE
molecule
   42    43     1     0     0
SMALL
bcc


@<TRIPOS>ATOM
      1 CAA          0.0000     0.0000     0.0000 c3         1 W0I      -0.092100
      2 FAC          5.7200     2.3300     4.4570 f          1 W0I      -0.135900
      3 CAD          7.5320     3.5970    10.2330 ca         1 W0I      -0.126000
      4 CAE          6.4170     2.7800    10.2890 ca         1 W0I      -0.120000
      5 CAF          8.6360     3.2140     9.4950 ca         1 W0I      -0.120000
      6 CAG          6.4060     1.5790     9.6070 ca         1 W0I      -0.134500
      7 CAH          8.6320     2.0110     8.8150 ca         1 W0I      -0.134500
      8 CAI          6.5390    -1.1800     4.8860 ca         1 W0I      -0.111000
      9 CAJ          6.6180     1.1880     6.3270 ca         1 W0I      -0.238000
     10 CAK          1.5300     0.0000     0.0000 c3         1 W0I      -0.084400
     11 CAL          2.0400     0.0000     1.4420 c3         1 W0I      -0.081400
     12 CAM          3.5700    -0.0000     1.4420 c3         1 W0I      -0.082400
     13 CAN          4.0800    -0.0000     2.8840 c3         1 W0I      -0.079400
     14 CAO          5.6110     0.0000     2.8830 c3         1 W0I      -0.030100
     15 OAP          7.5030     0.0110     8.1940 os         1 W0I      -0.230200
     16 CAQ          7.0060    -1.1810     6.1900 ca         1 W0I       0.070100
     17 CAR          6.1470     1.1820     5.0240 ca         1 W0I       0.158900
     18 CAS          7.5130     1.1920     8.8650 ca         1 W0I       0.090100
     19 CAT          6.1140     0.0000     4.3040 ca         1 W0I      -0.137300
     20 CAU          7.0460     0.0070     6.9130 ca         1 W0I       0.143100
     21 H1AA        -0.3610     0.8850     0.5100 hc         1 W0I       0.033033
     22 H2AA        -0.3610    -0.0010    -1.0210 hc         1 W0I       0.033033
     23 H3AA        -0.3610    -0.8840     0.5110 hc         1 W0I       0.033033
     24 HOAB         6.6830    -2.8980     6.9250 ho         1 W0I       0.416000
     25 HAD          7.5390     4.5400    10.7670 ha         1 W0I       0.134000
     26 HAE          5.5530     3.0820    10.8680 ha         1 W0I       0.136500
     27 HAF          9.5090     3.8540     9.4540 ha         1 W0I       0.136500
     28 HAG          5.5320     0.9400     9.6490 ha         1 W0I       0.145000
     29 HAH          9.4980     1.7120     8.2370 ha         1 W0I       0.145000
     30 HAI          6.5230    -2.1010     4.3160 ha         1 W0I       0.150000
     31 HAJ          6.6780     2.1190     6.8770 ha         1 W0I       0.163000
     32 H1AK         1.8910    -0.8840    -0.5110 hc         1 W0I       0.040200
     33 H2AK         1.8910     0.8840    -0.5110 hc         1 W0I       0.040200
     34 H1AL         1.6790     0.8850     1.9530 hc         1 W0I       0.041700
     35 H2AL         1.6790    -0.8840     1.9530 hc         1 W0I       0.041700
     36 H1AM         3.9310     0.8840     0.9310 hc         1 W0I       0.041700
     37 H2AM         3.9310    -0.8850     0.9310 hc         1 W0I       0.041700
     38 H1AN         3.7190    -0.8850     3.3950 hc         1 W0I       0.046700
     39 H2AN         3.7190     0.8840     3.3950 hc         1 W0I       0.046700
     40 H1AO         5.9720    -0.8840     2.3720 hc         1 W0I       0.054200
     41 H2AO         5.9710     0.8850     2.3730 hc         1 W0I       0.054200
     42 OAB          7.4260    -2.3410     6.7630 oh         1 W0I      -0.500100
@<TRIPOS>BOND
     1    42    16 1
     2     4     6 ar
     3     4     3 ar
     4     6    18 ar
     5     3     5 ar
     6    16     8 ar
     7    16    20 ar
     8    18    15 1
     9    18     7 ar
    10    15    20 1
    11     5     7 ar
    12     8    19 ar
    13    20     9 ar
    14    19    14 1
    15    19    17 ar
    16     9    17 ar
    17    14    13 1
    18    17     2 1
    19    13    12 1
    20    10     1 1
    21    10    11 1
    22    12    11 1
    23     1    21 1
    24     1    22 1
    25     1    23 1
    26    42    24 1
    27     3    25 1
    28     4    26 1
    29     5    27 1
    30     6    28 1
    31     7    29 1
    32     8    30 1
    33     9    31 1
    34    10    32 1
    35    10    33 1
    36    11    34 1
    37    11    35 1
    38    12    36 1
    39    12    37 1
    40    13    38 1
    41    13    39 1
    42    14    40 1
    43    14    41 1
@<TRIPOS>SUBSTRUCTURE
     1 W0I         1 TEMP              0 ****  ****    0 ROOT
