@<TRIPOS>MOLECULE
W0I
   42    43     1     0     0
SMALL
bcc


@<TRIPOS>ATOM
      1 CAA        -0.2300   -0.5510    0.2610 c3        1 W0I     -0.093100
      2 FAC         6.6280    2.7110    3.7590 f         1 W0I     -0.137900
      3 CAD         7.2440    3.0790   10.7810 ca        1 W0I     -0.150000
      4 CAE         6.2750    2.8320    9.8100 ca        1 W0I     -0.104000
      5 CAF         8.4920    2.4580   10.7000 ca        1 W0I     -0.104000
      6 CAG         6.5400    1.9620    8.7530 ca        1 W0I     -0.160500
      7 CAH         8.7820    1.5890    9.6510 ca        1 W0I     -0.160500
      8 CAI         6.2960   -0.7950    4.7770 ca        1 W0I     -0.131000
      9 CAJ         7.3430    1.6300    5.7510 ca        1 W0I     -0.153000
     10 CAK         1.2590   -0.3480    0.1570 c3        1 W0I     -0.080400
     11 CAL         1.9010   -0.2340    1.5240 c3        1 W0I     -0.079400
     12 CAM         3.3970   -0.0310    1.4140 c3        1 W0I     -0.079400
     13 CAN         4.0350    0.0820    2.7820 c3        1 W0I     -0.075400
     14 CAO         5.5340    0.2890    2.6650 c3        1 W0I     -0.040100
     15 OAP         8.1420    0.4090    7.7120 os        1 W0I     -0.260200
     16 CAQ         6.9130   -0.7510    6.0340 ca        1 W0I      0.118100
     17 CAR         6.7160    1.5750    4.4940 ca        1 W0I      0.102900
     18 CAS         7.7930    1.3460    8.6840 ca        1 W0I      0.103100
     19 CAT         6.1880    0.3590    4.0000 ca        1 W0I     -0.079300
     20 CAU         7.4360    0.4670    6.5130 ca        1 W0I      0.030100
     21 H1AA       -0.4630   -1.4860    0.8260 hc        1 W0I      0.032700
     22 H2AA       -0.6830   -0.6320   -0.7570 hc        1 W0I      0.032700
     23 H3AA       -0.7090    0.3070    0.7920 hc        1 W0I      0.032700
     24 HOAB        7.4290   -1.7360    7.5860 ho        1 W0I      0.439000
     25 HAD         7.0270    3.7650   11.6120 ha        1 W0I      0.136000
     26 HAE         5.2920    3.3220    9.8740 ha        1 W0I      0.137000
     27 HAF         9.2550    2.6550   11.4670 ha        1 W0I      0.137000
     28 HAG         5.7810    1.7660    7.9820 ha        1 W0I      0.150000
     29 HAH         9.7590    1.0920    9.5720 ha        1 W0I      0.150000
     30 HAI         5.8960   -1.7520    4.4090 ha        1 W0I      0.160000
     31 HAJ         7.7530    2.5790    6.1280 ha        1 W0I      0.165000
     32 H1AK        1.4730    0.5810   -0.4350 hc        1 W0I      0.038700
     33 H2AK        1.7180   -1.2070   -0.4010 hc        1 W0I      0.038700
     34 H1AL        1.6900   -1.1630    2.1160 hc        1 W0I      0.040200
     35 H2AL        1.4440    0.6250    2.0820 hc        1 W0I      0.040200
     36 H1AM        3.6070    0.8990    0.8230 hc        1 W0I      0.041200
     37 H2AM        3.8530   -0.8890    0.8540 hc        1 W0I      0.041200
     38 H1AN        3.5790    0.9400    3.3410 hc        1 W0I      0.045700
     39 H2AN        3.8300   -0.8490    3.3740 hc        1 W0I      0.045700
     40 H1AO        5.7350    1.2320    2.0890 hc        1 W0I      0.059200
     41 H2AO        5.9830   -0.5600    2.0820 hc        1 W0I      0.059200
     42 OAB         6.9920   -1.9250    6.7400 oh        1 W0I     -0.489100
@<TRIPOS>BOND
     1    1   10 1   
     2    1   21 1   
     3    1   22 1   
     4    1   23 1   
     5    2   17 1   
     6    3    4 ar  
     7    3    5 ar  
     8    3   25 1   
     9    4    6 ar  
    10    4   26 1   
    11    5    7 ar  
    12    5   27 1   
    13    6   18 ar  
    14    6   28 1   
    15    7   18 ar  
    16    7   29 1   
    17    8   16 ar  
    18    8   19 ar  
    19    8   30 1   
    20    9   17 ar  
    21    9   20 ar  
    22    9   31 1   
    23   10   11 1   
    24   10   32 1   
    25   10   33 1   
    26   11   12 1   
    27   11   34 1   
    28   11   35 1   
    29   12   13 1   
    30   12   36 1   
    31   12   37 1   
    32   13   14 1   
    33   13   38 1   
    34   13   39 1   
    35   14   19 1   
    36   14   40 1   
    37   14   41 1   
    38   15   18 1   
    39   15   20 1   
    40   16   20 ar  
    41   16   42 1   
    42   17   19 ar  
    43   24   42 1   
@<TRIPOS>SUBSTRUCTURE
     1 W0I         1 TEMP              0 ****  ****    0 ROOT
