@<TRIPOS>MOLECULE
W0T
   46    47     1     0     0
SMALL
bcc


@<TRIPOS>ATOM
      1 FAX          0.0000     0.0000     0.0000 f          1 W0T      -0.181633
      2 CAW          1.3980     0.0000     0.0000 c3         1 W0T       0.553900
      3 FAY          1.8650     0.0000     1.3190 f          1 W0T      -0.181633
      4 FAZ          1.8650    -1.1430    -0.6590 f          1 W0T      -0.181633
      5 CAV          1.9080     1.2490    -0.7210 c3         1 W0T       0.302600
      6 FBA          1.4420     1.2480    -2.0400 f          1 W0T      -0.166300
      7 FBB          1.4420     2.3920    -0.0620 f          1 W0T      -0.166300
      8 CAU          3.4390     1.2500    -0.7210 c3         1 W0T       0.322600
      9 FBC          3.9050     1.2490     0.5980 f          1 W0T      -0.164300
     10 FBD          3.9050     0.1070    -1.3810 f          1 W0T      -0.164300
     11 CAT          3.9490     2.4990    -1.4420 c3         1 W0T       0.310600
     12 FBE          3.4830     2.4990    -2.7610 f          1 W0T      -0.171800
     13 FBF          3.4820     3.6410    -0.7830 f          1 W0T      -0.171800
     14 CAS          5.4790     2.4980    -1.4420 c3         1 W0T       0.351600
     15 FBG          5.9450     2.4980    -0.1230 f          1 W0T      -0.164800
     16 FBH          5.9450     1.3570    -2.1020 f          1 W0T      -0.164800
     17 CAR          5.9890     3.7480    -2.1630 c3         1 W0T       0.266600
     18 FBI          5.5220     3.7480    -3.4830 f          1 W0T      -0.197300
     19 FBJ          5.5220     4.8900    -1.5030 f          1 W0T      -0.197300
     20 CAP          7.4950     3.7480    -2.1630 c          1 W0T       0.518100
     21 OAQ          8.1020     2.7010    -2.0720 o          1 W0T      -0.615100
     22 N            8.1690     4.9100    -2.2650 ns         1 W0T      -0.069900
     23 CA           9.6340     4.9110    -2.2650 c3         1 W0T      -0.107300
     24 C           10.1370     4.9110    -0.8440 c          1 W0T       0.973600
     25 O            9.3510     4.9100     0.0740 o          1 W0T      -0.880800
     26 OXT         11.4560     4.9110    -0.5990 o          1 W0T      -0.880800
     27 CB          10.1440     6.1600    -2.9860 c3         1 W0T       0.065800
     28 CG           9.7460     6.1000    -4.4380 cc         1 W0T      -0.128400
     29 CD2          8.4690     6.5350    -5.0100 ca         1 W0T      -0.099800
     30 CE3          7.3060     7.0930    -4.4750 ca         1 W0T      -0.046000
     31 CZ3          6.2590     7.3950    -5.2990 ca         1 W0T      -0.141000
     32 CH2          6.3410     7.1510    -6.6630 ca         1 W0T      -0.094000
     33 CZ2          7.4790     6.6010    -7.2110 ca         1 W0T      -0.111000
     34 CE2          8.5580     6.2860    -6.3930 ca         1 W0T      -0.227200
     35 NE1          9.8000     5.7410    -6.6280 na         1 W0T       0.343600
     36 CD1         10.4950     5.6430    -5.4540 cd         1 W0T      -0.273100
     37 H1           7.6690     5.7770    -2.2850 hn         1 W0T       0.169500
     38 H2           9.9950     4.0260    -2.7750 h1         1 W0T       0.061700
     39 H4           9.7120     7.0420    -2.5290 hc         1 W0T       0.034700
     40 H5          11.2240     6.2060    -2.9090 hc         1 W0T       0.034700
     41 H6           7.2350     7.2860    -3.4120 ha         1 W0T       0.107000
     42 H7           5.3570     7.8280    -4.8840 ha         1 W0T       0.098000
     43 H8           5.5020     7.3960    -7.3030 ha         1 W0T       0.092000
     44 H9           7.5330     6.4150    -8.2770 ha         1 W0T       0.090000
     45 H10         10.1460     5.4650    -7.5260 hn         1 W0T       0.105700
     46 H11         11.5020     5.2550    -5.3580 h4         1 W0T       0.147000
@<TRIPOS>BOND
     1     1     2 1   
     2     2     3 1   
     3     2     4 1   
     4     2     5 1   
     5     5     6 1   
     6     5     7 1   
     7     5     8 1   
     8     8     9 1   
     9     8    10 1   
    10     8    11 1   
    11    11    12 1   
    12    11    13 1   
    13    11    14 1   
    14    14    15 1   
    15    14    16 1   
    16    14    17 1   
    17    17    18 1   
    18    17    19 1   
    19    17    20 1   
    20    20    21 2   
    21    20    22 1   
    22    22    23 1   
    23    22    37 1   
    24    23    24 1   
    25    23    27 1   
    26    23    38 1   
    27    24    25 1   
    28    24    26 1   
    29    27    28 1   
    30    27    39 1   
    31    27    40 1   
    32    28    29 1   
    33    28    36 2   
    34    29    30 ar  
    35    29    34 ar  
    36    30    31 ar  
    37    30    41 1   
    38    31    32 ar  
    39    31    42 1   
    40    32    33 ar  
    41    32    43 1   
    42    33    34 ar  
    43    33    44 1   
    44    34    35 1   
    45    35    36 1   
    46    35    45 1   
    47    36    46 1   
@<TRIPOS>SUBSTRUCTURE
     1 W0T         1 TEMP              0 ****  ****    0 ROOT
