@<TRIPOS>MOLECULE
molecule
   46    47     1     0     0
SMALL
bcc


@<TRIPOS>ATOM
      1 FAX          0.0000     0.0000     0.0000 f          1 W0T      -0.195967
      2 CAW          1.3980     0.0000     0.0000 c3         1 W0T       0.588900
      3 FAY          1.8650     0.0000     1.3190 f          1 W0T      -0.195967
      4 FAZ          1.8650    -1.1430    -0.6590 f          1 W0T      -0.195967
      5 CAV          1.9080     1.2490    -0.7210 c3         1 W0T       0.325600
      6 FBA          1.4420     1.2480    -2.0400 f          1 W0T      -0.176300
      7 FBB          1.4420     2.3920    -0.0620 f          1 W0T      -0.176300
      8 CAU          3.4390     1.2500    -0.7210 c3         1 W0T       0.333600
      9 FBC          3.9050     1.2490     0.5980 f          1 W0T      -0.171300
     10 FBD          3.9050     0.1070    -1.3810 f          1 W0T      -0.171300
     11 CAT          3.9490     2.4990    -1.4420 c3         1 W0T       0.325600
     12 FBE          3.4830     2.4990    -2.7610 f          1 W0T      -0.179300
     13 FBF          3.4820     3.6410    -0.7830 f          1 W0T      -0.179300
     14 CAS          5.4790     2.4980    -1.4420 c3         1 W0T       0.361600
     15 FBG          5.9450     2.4980    -0.1230 f          1 W0T      -0.168300
     16 FBH          5.9450     1.3570    -2.1020 f          1 W0T      -0.168300
     17 CAR          5.9890     3.7480    -2.1630 c3         1 W0T       0.293600
     18 FBI          5.5220     3.7480    -3.4830 f          1 W0T      -0.208300
     19 FBJ          5.5220     4.8900    -1.5030 f          1 W0T      -0.208300
     20 CAP          7.4950     3.7480    -2.1630 c          1 W0T       0.634100
     21 OAQ          8.1020     2.7010    -2.0720 o          1 W0T      -0.571100
     22 N            8.1690     4.9100    -2.2650 ns         1 W0T      -0.503900
     23 CA           9.6340     4.9110    -2.2650 c3         1 W0T       0.008700
     24 C           10.1370     4.9110    -0.8440 c          1 W0T       0.882600
     25 O            9.3510     4.9100     0.0740 o          1 W0T      -0.830800
     26 OXT         11.4560     4.9110    -0.5990 o          1 W0T      -0.830800
     27 CB          10.1440     6.1600    -2.9860 c3         1 W0T      -0.007200
     28 CG           9.7460     6.1000    -4.4380 cc         1 W0T      -0.131400
     29 CD2          8.4690     6.5350    -5.0100 ca         1 W0T      -0.095800
     30 CE3          7.3060     7.0930    -4.4750 ca         1 W0T      -0.075000
     31 CZ3          6.2590     7.3950    -5.2990 ca         1 W0T      -0.165000
     32 CH2          6.3410     7.1510    -6.6630 ca         1 W0T      -0.117000
     33 CZ2          7.4790     6.6010    -7.2110 ca         1 W0T      -0.151000
     34 CE2          8.5580     6.2860    -6.3930 ca         1 W0T      -0.041200
     35 NE1          9.8000     5.7410    -6.6280 na         1 W0T      -0.190400
     36 CD1         10.4950     5.6430    -5.4540 cd         1 W0T      -0.111100
     37 H1           7.6690     5.7770    -2.2850 hn         1 W0T       0.312500
     38 H2           9.9950     4.0260    -2.7750 h1         1 W0T       0.079700
     39 H4           9.7120     7.0420    -2.5290 hc         1 W0T       0.066200
     40 H5          11.2240     6.2060    -2.9090 hc         1 W0T       0.066200
     41 H6           7.2350     7.2860    -3.4120 ha         1 W0T       0.131000
     42 H7           5.3570     7.8280    -4.8840 ha         1 W0T       0.122000
     43 H8           5.5020     7.3960    -7.3030 ha         1 W0T       0.118000
     44 H9           7.5330     6.4150    -8.2770 ha         1 W0T       0.114000
     45 H10         10.1460     5.4650    -7.5260 hn         1 W0T       0.285700
     46 H11         11.5020     5.2550    -5.3580 h4         1 W0T       0.170000
@<TRIPOS>BOND
     1     6     5 1
     2     4     2 1
     3     3     2 1
     4     5     2 1
     5     5     7 1
     6     5     8 1
     7     2     1 1
     8    10     8 1
     9     8     9 1
    10     8    11 1
    11    13    11 1
    12    11    12 1
    13    11    14 1
    14    16    14 1
    15    14    15 1
    16    14    17 1
    17    21    20 2
    18    20    17 1
    19    20    22 1
    20    17    19 1
    21    17    18 1
    22    23    22 1
    23    23    24 1
    24    23    27 1
    25    25    24 1
    26    24    26 1
    27    27    28 1
    28    28    36 2
    29    28    29 1
    30    36    35 1
    31    30    29 ar
    32    30    31 ar
    33    29    34 ar
    34    35    34 1
    35    31    32 ar
    36    34    33 ar
    37    32    33 ar
    38    22    37 1
    39    23    38 1
    40    27    39 1
    41    27    40 1
    42    30    41 1
    43    31    42 1
    44    32    43 1
    45    33    44 1
    46    35    45 1
    47    36    46 1
@<TRIPOS>SUBSTRUCTURE
     1 W0T         1 TEMP              0 ****  ****    0 ROOT
