@<TRIPOS>MOLECULE
molecule
   55    56     1     0     0
SMALL
bcc


@<TRIPOS>ATOM
      1 FBQ          0.0000     0.0000     0.0000 f          1 W10      -0.193967
      2 CAZ          1.3990     0.0000     0.0000 c3         1 W10       0.589900
      3 FBR          1.8660     0.0000     1.3200 f          1 W10      -0.193967
      4 FBS          1.8670    -1.1420    -0.6590 f          1 W10      -0.193967
      5 CAY          1.9100     1.2490    -0.7210 c3         1 W10       0.328600
      6 FBO          3.3080     1.2490    -0.7210 f          1 W10      -0.172300
      7 FBP          1.4440     1.2490    -2.0400 f          1 W10      -0.172300
      8 CAX          1.3990     2.4990    -0.0000 c3         1 W10       0.331600
      9 FBA         -0.0000     2.4990    -0.0000 f          1 W10      -0.171800
     10 FBB          1.8640     2.4990     1.3190 f          1 W10      -0.171800
     11 CAW          1.9090     3.7480    -0.7220 c3         1 W10       0.337600
     12 FBC          3.3080     3.7480    -0.7210 f          1 W10      -0.170300
     13 FBD          1.4440     3.7480    -2.0410 f          1 W10      -0.170300
     14 CAV          1.3990     4.9970    -0.0000 c3         1 W10       0.334600
     15 FBE         -0.0000     4.9960    -0.0010 f          1 W10      -0.173300
     16 FBF          1.8640     4.9970     1.3190 f          1 W10      -0.173300
     17 CAU          1.9090     6.2460    -0.7220 c3         1 W10       0.338600
     18 FBG          3.3080     6.2460    -0.7210 f          1 W10      -0.170300
     19 FBH          1.4440     6.2460    -2.0410 f          1 W10      -0.170300
     20 CAT          1.3990     7.4950    -0.0000 c3         1 W10       0.325600
     21 FBI         -0.0000     7.4950    -0.0010 f          1 W10      -0.179300
     22 FBJ          1.8640     7.4960     1.3190 f          1 W10      -0.179300
     23 CAS          1.9090     8.7440    -0.7220 c3         1 W10       0.361600
     24 FBK          3.3080     8.7450    -0.7210 f          1 W10      -0.168300
     25 FBL          1.4430     8.7440    -2.0410 f          1 W10      -0.168300
     26 CAR          1.3980     9.9940    -0.0010 c3         1 W10       0.293600
     27 FBM         -0.0000     9.9940    -0.0010 f          1 W10      -0.207800
     28 FBN          1.8640     9.9940     1.3180 f          1 W10      -0.207800
     29 CAP          1.9010    11.2250    -0.7110 c          1 W10       0.635100
     30 OAQ          2.1900    11.1700    -1.8870 o          1 W10      -0.570100
     31 N            2.0290    12.3850    -0.0380 ns         1 W10      -0.504900
     32 CA           2.5170    13.5820    -0.7290 c3         1 W10       0.009700
     33 C            4.0240    13.5820    -0.7280 c          1 W10       0.882600
     34 OXT          4.6960    14.5880    -1.3090 o          1 W10      -0.831300
     35 O            4.6290    12.6760    -0.2050 o          1 W10      -0.831300
     36 CB           2.0070    14.8300    -0.0080 c3         1 W10      -0.007200
     37 CG           0.5050    14.8940    -0.1160 cc         1 W10      -0.131400
     38 CD2         -0.4600    14.2300     0.7640 ca         1 W10      -0.094800
     39 CE3         -0.3440    13.4000     1.8810 ca         1 W10      -0.075000
     40 CZ3         -1.4690    12.9290     2.4960 ca         1 W10      -0.165000
     41 CH2         -2.7280    13.2700     2.0200 ca         1 W10      -0.117000
     42 CZ2         -2.8650    14.0870     0.9190 ca         1 W10      -0.150000
     43 CE2         -1.7330    14.5780     0.2780 ca         1 W10      -0.041200
     44 NE1         -1.5410    15.3940    -0.8160 na         1 W10      -0.191400
     45 CD1         -0.2020    15.5750    -1.0310 cd         1 W10      -0.111100
     46 H1           1.8490    12.4150     0.9460 hn         1 W10       0.313500
     47 H2           2.1560    13.5820    -1.7510 h1         1 W10       0.079700
     48 H4           2.4390    15.7130    -0.4640 hc         1 W10       0.066200
     49 H5           2.2920    14.7860     1.0360 hc         1 W10       0.066200
     50 H6           0.6350    13.1290     2.2580 ha         1 W10       0.130000
     51 H7          -1.3790    12.2860     3.3620 ha         1 W10       0.122000
     52 H8          -3.6110    12.8890     2.5190 ha         1 W10       0.118000
     53 H9          -3.8520    14.3480     0.5550 ha         1 W10       0.114000
     54 H10         -2.2710    15.7990    -1.3660 hn         1 W10       0.285700
     55 H11          0.2240    16.1780    -1.8230 h4         1 W10       0.170000
@<TRIPOS>BOND
     1     6     5 1
     2    10     8 1
     3     9     8 1
     4     5     8 1
     5     5     7 1
     6     5     2 1
     7     8    11 1
     8     3     2 1
     9    16    14 1
    10     2     1 1
    11     2     4 1
    12    12    11 1
    13    11    14 1
    14    11    13 1
    15    14    15 1
    16    14    17 1
    17    18    17 1
    18    22    20 1
    19    17    20 1
    20    17    19 1
    21    20    21 1
    22    20    23 1
    23    24    23 1
    24    28    26 1
    25    23    26 1
    26    23    25 1
    27    26    27 1
    28    26    29 1
    29    29    30 2
    30    29    31 1
    31    31    32 1
    32    32    33 1
    33    32    36 1
    34    35    33 1
    35    33    34 1
    36    36    37 1
    37    37    38 1
    38    37    45 2
    39    39    38 ar
    40    39    40 ar
    41    38    43 ar
    42    40    41 ar
    43    45    44 1
    44    43    44 1
    45    43    42 ar
    46    41    42 ar
    47    31    46 1
    48    32    47 1
    49    36    48 1
    50    36    49 1
    51    39    50 1
    52    40    51 1
    53    41    52 1
    54    42    53 1
    55    44    54 1
    56    45    55 1
@<TRIPOS>SUBSTRUCTURE
     1 W10         1 TEMP              0 ****  ****    0 ROOT
