@<TRIPOS>MOLECULE
W11
   45    47     1     0     0
SMALL
bcc


@<TRIPOS>ATOM
      1 O1          0.2580   -1.2670    0.8000 os        1 W11     -0.124100
      2 N2          1.5420   -1.0450    0.6050 nc        1 W11     -0.360300
      3 C3          1.8340    0.2240    0.9600 cd        1 W11      0.321600
      4 CM3         3.1530    0.8780    0.8990 c3        1 W11     -0.133400
      5 C4          0.6070    0.8740    1.4290 cd        1 W11     -0.361600
      6 C5         -0.3640   -0.0990    1.3130 cc        1 W11      0.262000
      7 C1C        -1.8030   -0.2020    1.5820 c3        1 W11     -0.117700
      8 C2C        -2.3750    1.1120    2.0730 c3        1 W11     -0.085400
      9 C3C        -3.8620    0.9620    2.3390 c3        1 W11      0.130400
     10 O1B        -4.3040    2.2440    2.8200 os        1 W11     -0.346900
     11 C1B        -5.6790    2.3070    3.0170 ca        1 W11      0.113100
     12 C2B        -6.1720    2.2230    4.3320 ca        1 W11     -0.089800
     13 CM2        -5.2630    1.9870    5.4770 c3        1 W11     -0.054800
     14 C3B        -7.5420    2.3920    4.5510 ca        1 W11     -0.085500
     15 C4B        -8.4080    2.6380    3.4780 ca        1 W11     -0.142500
     16 C5B        -7.9030    2.7250    2.1750 ca        1 W11     -0.085500
     17 C6B        -6.5370    2.5600    1.9310 ca        1 W11     -0.089800
     18 CM6        -6.0200    2.6610    0.5470 c3        1 W11     -0.054800
     19 C2A        -9.8370    2.8080    3.7240 cc        1 W11      0.599500
     20 N1A       -10.4360    2.9750    4.9390 nd        1 W11     -0.344300
     21 N3A       -10.8220    2.8210    2.6830 nc        1 W11     -0.614000
     22 C3A       -11.9600    2.9940    3.3390 cd        1 W11      0.400700
     23 CM4       -13.3970    3.1000    2.8550 c3        1 W11      0.649600
     24 O1A       -11.7250    3.0890    4.7350 os        1 W11     -0.095100
     25 F1        -14.2970    3.2910    3.8680 f         1 W11     -0.206967
     26 F2        -13.5950    4.1400    1.9860 f         1 W11     -0.206967
     27 F3        -13.8220    1.9810    2.1910 f         1 W11     -0.206967
     28 HM31        3.4470    1.2180    1.9230 hc        1 W11      0.058367
     29 HM32        3.9440    0.1910    0.5090 hc        1 W11      0.058367
     30 HM33        3.0940    1.7720    0.2290 hc        1 W11      0.058367
     31 H41         0.5170    1.8950    1.7820 ha        1 W11      0.175000
     32 H1C1       -2.3290   -0.5250    0.6410 hc        1 W11      0.072700
     33 H1C2       -1.9740   -1.0080    2.3490 hc        1 W11      0.072700
     34 H2C1       -1.8580    1.4350    3.0140 hc        1 W11      0.064200
     35 H2C2       -2.2120    1.9180    1.3110 hc        1 W11      0.064200
     36 H3C1       -4.0610    0.1870    3.1240 h1        1 W11      0.040700
     37 H3C2       -4.4200    0.6990    1.4020 h1        1 W11      0.040700
     38 HM21       -4.3410    1.4460    5.1460 hc        1 W11      0.052033
     39 HM22       -4.9490    2.9660    5.9200 hc        1 W11      0.052033
     40 HM23       -5.7690    1.3860    6.2720 hc        1 W11      0.052033
     41 H3B        -7.9280    2.3250    5.5810 ha        1 W11      0.155500
     42 H5B        -8.5730    2.9270    1.3240 ha        1 W11      0.155500
     43 HM61       -6.5740    3.4470   -0.0250 hc        1 W11      0.052033
     44 HM62       -4.9320    2.9220    0.5480 hc        1 W11      0.052033
     45 HM63       -6.1510    1.6850    0.0150 hc        1 W11      0.052033
@<TRIPOS>BOND
     1    1    2 1
     2    1    6 1
     3    2    3 2
     4    3    4 1
     5    3    5 1
     6    4   28 1
     7    4   29 1
     8    4   30 1
     9    5    6 2
    10    5   31 1
    11    6    7 1
    12    7    8 1
    13    7   32 1
    14    7   33 1
    15    8    9 1
    16    8   34 1
    17    8   35 1
    18    9   10 1
    19    9   36 1
    20    9   37 1
    21   10   11 1
    22   11   12 ar
    23   11   17 ar
    24   12   13 1
    25   12   14 ar
    26   13   38 1
    27   13   39 1
    28   13   40 1
    29   14   15 ar
    30   14   41 1
    31   15   16 ar
    32   15   19 1
    33   16   17 ar
    34   16   42 1
    35   17   18 1
    36   18   43 1
    37   18   44 1
    38   18   45 1
    39   19   20 2
    40   19   21 1
    41   20   24 1
    42   21   22 2
    43   22   23 1
    44   22   24 1
    45   23   25 1
    46   23   26 1
    47   23   27 1
@<TRIPOS>SUBSTRUCTURE
     1 W11         1 TEMP              0 ****  ****    0 ROOT
