@<TRIPOS>MOLECULE
W12
   75    73     1     0     0
SMALL
bcc


@<TRIPOS>ATOM
      1 C4         -0.5030    0.2290    0.9780 c3        1 W12      0.142000
      2 C5          0.7390   -0.6080    1.1270 c2        1 W12     -0.155000
      3 C6          1.1960   -0.8780    2.3170 c1        1 W12     -0.185000
      4 C7          1.5550   -1.1540    3.5420 c2        1 W12     -0.031000
      5 C8         -0.8180   -0.0670    3.4500 c1        1 W12      0.170000
      6 C10         2.5390   -0.3850    4.3860 c3        1 W12      0.070000
      7 C13         3.7540   -1.2690    4.5560 c2        1 W12     -0.416000
      8 C15         6.1730   -2.5790    4.9580 cu        1 W12     -0.235000
      9 C11         2.9950    0.9150    3.7070 c3        1 W12     -0.157000
     10 C20         4.4520   -6.0350    3.2520 c3        1 W12      0.004000
     11 C21         3.1640   -6.7660    2.8180 c3        1 W12     -0.083000
     12 C22         1.9630   -5.8480    2.9970 c3        1 W12     -0.209000
     13 C24         3.2470   -7.2150    1.3690 c3        1 W12     -0.209000
     14 C26         2.7530    0.6260    6.7160 c3        1 W12     -0.160000
     15 C28         2.1000    0.7280    8.0710 c3        1 W12     -0.210500
     16 C1         -3.4600   -2.3570   -1.8440 c2        1 W12      0.116000
     17 C2         -2.6510   -1.9220   -0.9130 c1        1 W12     -0.418000
     18 O02        -0.7580   -1.4170   -3.2550 oh        1 W12     -0.409000
     19 C3         -1.8450   -1.4840    0.0140 c2        1 W12      0.085000
     20 O03        -1.3050   -0.2090   -0.1220 os        1 W12     -0.232000
     21 C9         -1.2710    0.2750    2.2590 c2        1 W12     -0.517000
     22 C25         1.9350    1.9910    3.6180 c3        1 W12     -0.160000
     23 C27         2.4090    3.1510    2.7780 c3        1 W12     -0.210500
     24 C12         1.8650   -0.1080    5.7350 c3        1 W12     -0.157000
     25 C18         3.6280   -2.5160    5.3680 c3        1 W12     -0.088000
     26 C17         4.9110   -3.2980    5.3460 cx        1 W12     -0.107000
     27 C14         4.9200   -0.9360    3.9970 c1        1 W12      0.150000
     28 C16         5.6750   -3.4450    4.0760 cu        1 W12      0.027000
     29 O04         5.8510   -4.0430    2.8990 os        1 W12     -0.120000
     30 C19         4.7200   -4.7900    2.4070 c3        1 W12     -0.061000
     31 O05         5.5750   -6.8980    3.2490 oh        1 W12     -0.308000
     32 C23         2.9920   -7.9880    3.7120 c3        1 W12     -0.209000
     33 H1         -0.2190    1.2790    0.6600 h1        1 W12      0.137000
     34 H2          1.2150   -0.9440    0.1930 ha        1 W12      0.164000
     35 H3          1.1460   -2.0590    4.0330 ha        1 W12      0.148000
     36 H4          6.9680   -1.9500    5.3010 ha        1 W12      0.212000
     37 H5          3.8740    1.3230    4.2780 hc        1 W12      0.093250
     38 H6          3.3560    0.6630    2.6730 hc        1 W12      0.093250
     39 H7          4.3550   -5.7340    4.3370 h1        1 W12      0.124000
     40 H8          2.0050   -5.3350    3.9880 hc        1 W12      0.079667
     41 H9          1.9270   -5.0750    2.1930 hc        1 W12      0.079667
     42 H10         1.0200   -6.4450    2.9470 hc        1 W12      0.079667
     43 H11         3.3900   -6.3420    0.6890 hc        1 W12      0.079667
     44 H12         4.0940   -7.9280    1.2260 hc        1 W12      0.079667
     45 H13         2.3010   -7.7340    1.0780 hc        1 W12      0.079667
     46 H14         3.7350    0.0890    6.8060 hc        1 W12      0.083500
     47 H15         2.9740    1.6570    6.3290 hc        1 W12      0.083500
     48 H16         2.7570    1.2940    8.7750 hc        1 W12      0.072333
     49 H17         1.1200    1.2590    7.9980 hc        1 W12      0.072333
     50 H18         1.9170   -0.2870    8.4990 hc        1 W12      0.072333
     51 H19        -2.0950   -3.0290   -3.0310 ho        1 W12      0.245000
     52 H21        -4.5610   -2.2770   -1.8140 h4        1 W12      0.168000
     53 H22        -1.8990   -2.5630   -5.2210 ha        1 W12      0.002500
     54 H23        -1.3140   -0.8280   -3.7730 ho        1 W12      0.205500
     55 H24        -0.7980   -1.0460   -2.3650 ho        1 W12      0.205500
     56 H25        -1.5410   -2.0510    0.9090 h4        1 W12      0.150000
     57 H26        -2.3070    0.6550    2.1580 ha        1 W12      0.200000
     58 H27         0.9960    1.5610    3.1750 hc        1 W12      0.083500
     59 H28         1.6770    2.3590    4.6460 hc        1 W12      0.083500
     60 H29         2.6280    2.8210    1.7340 hc        1 W12      0.072333
     61 H30         3.3420    3.5910    3.2070 hc        1 W12      0.072333
     62 H31         1.6270    3.9460    2.7410 hc        1 W12      0.072333
     63 H32         0.9280    0.4830    5.5450 hc        1 W12      0.093250
     64 H33         1.5460   -1.0860    6.1870 hc        1 W12      0.093250
     65 H34         3.3830   -2.2470    6.4320 hc        1 W12      0.093500
     66 H35         2.7900   -3.1540    4.9770 hc        1 W12      0.093500
     67 H36         4.9250   -4.1200    6.0900 hc        1 W12      0.120000
     68 H37         5.0570   -5.0590    1.3690 h1        1 W12      0.114500
     69 H38         3.8190   -4.1270    2.3710 h1        1 W12      0.114500
     70 H39         5.7410   -7.1590    2.3350 ho        1 W12      0.200000
     71 H40         3.9100   -8.6230    3.6720 hc        1 W12      0.079667
     72 H41         2.1160   -8.5920    3.3750 hc        1 W12      0.079667
     73 H42         2.8240   -7.6710    4.7690 hc        1 W12      0.079667
     74 H20        -1.3230   -2.8990   -5.0980 ha        1 W12      0.002500
     75 O01        -3.0680   -2.9940   -2.9900 oh        1 W12     -0.277000
@<TRIPOS>BOND
     1    1    2 1   
     2    1   20 1   
     3    1   21 1   
     4    1   33 1   
     5    2    3 1   
     6    2   34 1   
     7    3    4 1   
     8    4    6 1   
     9    4   35 1   
    10    5   21 1   
    11    6    7 1   
    12    6    9 1   
    13    6   24 1   
    14    7   25 1   
    15    7   27 1   
    16    8   26 1   
    17    8   28 1   
    18    8   36 1   
    19    9   22 1   
    20    9   37 1   
    21    9   38 1   
    22   10   11 1   
    23   10   30 1   
    24   10   31 1   
    25   10   39 1   
    26   11   12 1   
    27   11   13 1   
    28   11   32 1   
    29   12   40 1   
    30   12   41 1   
    31   12   42 1   
    32   13   43 1   
    33   13   44 1   
    34   13   45 1   
    35   14   15 1   
    36   14   24 1   
    37   14   46 1   
    38   14   47 1   
    39   15   48 1   
    40   15   49 1   
    41   15   50 1   
    42   16   17 1   
    43   16   52 1   
    44   16   75 1   
    45   17   19 1   
    46   18   54 1   
    47   18   55 1   
    48   19   20 1   
    49   19   56 1   
    50   21   57 1   
    51   22   23 1   
    52   22   58 1   
    53   22   59 1   
    54   23   60 1   
    55   23   61 1   
    56   23   62 1   
    57   24   63 1   
    58   24   64 1   
    59   25   26 1   
    60   25   65 1   
    61   25   66 1   
    62   26   28 1   
    63   26   67 1   
    64   28   29 1   
    65   29   30 1   
    66   30   68 1   
    67   30   69 1   
    68   31   70 1   
    69   32   71 1   
    70   32   72 1   
    71   32   73 1   
    72   51   75 1   
    73   53   74 1   
@<TRIPOS>SUBSTRUCTURE
     1 W12         1 TEMP              0 ****  ****    0 ROOT
