@<TRIPOS>MOLECULE
molecule
   75    76     1     0     0
SMALL
bcc


@<TRIPOS>ATOM
      1 C4           0.0000     0.0000     0.0000 ca         1 W12       0.141100
      2 C5           1.3870     0.0000     0.0000 ca         1 W12      -0.189000
      3 C6           2.0780     0.0000     1.1970 ca         1 W12      -0.087500
      4 C7           1.3870    -0.0020     2.3940 ca         1 W12      -0.106300
      5 C8           0.0030    -0.0020     2.3970 ca         1 W12      -0.087500
      6 C10          2.1420     0.0030     3.6980 c3         1 W12       0.040600
      7 C13          2.9580    -1.2590     3.8100 ca         1 W12      -0.109300
      8 C15          5.0760    -2.3370     4.1000 ca         1 W12      -0.190000
      9 C11          3.0700     1.2170     3.7460 c3         1 W12      -0.071400
     10 C20          5.4770    -7.1130     4.1530 c3         1 W12       0.161100
     11 C21          4.7090    -8.4360     4.1740 c3         1 W12      -0.071000
     12 C22          3.7450    -8.4480     5.3620 c3         1 W12      -0.083767
     13 C24          3.9180    -8.5890     2.8740 c3         1 W12      -0.083767
     14 C26          1.9180     0.1070     6.1850 c3         1 W12      -0.088400
     15 C28          0.9270     0.0470     7.3500 c3         1 W12      -0.092100
     16 C1          -4.2160     0.1250    -2.4320 c3         1 W12       0.132400
     17 C2          -2.6940     0.0000    -2.5120 c3         1 W12       0.152100
     18 O02         -2.3510    -1.2200    -3.1710 oh         1 W12      -0.589800
     19 C3          -2.1070     0.0000    -1.0990 c3         1 W12       0.126400
     20 O03         -0.6810    -0.0000    -1.1750 os         1 W12      -0.325900
     21 C9          -0.6900    -0.0070     1.2030 ca         1 W12      -0.189000
     22 C25          2.2420     2.4980     3.6320 c3         1 W12      -0.088400
     23 C27          3.1780     3.7060     3.5540 c3         1 W12      -0.092100
     24 C12          1.1500     0.0730     4.8610 c3         1 W12      -0.071400
     25 C18          2.3390    -2.4920     3.7210 ca         1 W12      -0.087000
     26 C17          3.0850    -3.6510     3.8220 ca         1 W12      -0.190000
     27 C14          4.3250    -1.1820     3.9970 ca         1 W12      -0.087000
     28 C16          4.4570    -3.5760     4.0150 ca         1 W12       0.143100
     29 O04          5.1930    -4.7130     4.1160 os         1 W12      -0.334900
     30 C19          4.4880    -5.9530     4.0190 c3         1 W12       0.114400
     31 O05          6.3770    -7.1030     3.0440 oh         1 W12      -0.598800
     32 C23          5.6970    -9.5960     4.3100 c3         1 W12      -0.083767
     33 H1           1.9290     0.0010    -0.9380 ha         1 W12       0.137500
     34 H2           3.1610     0.0000     1.1960 ha         1 W12       0.138500
     35 H3          -0.5360    -0.0050     3.3370 ha         1 W12       0.138500
     36 H4           6.1470    -2.2750     4.2490 ha         1 W12       0.138000
     37 H5           3.6120     1.2200     4.6840 hc         1 W12       0.046700
     38 H6           3.7730     1.1660     2.9240 hc         1 W12       0.046700
     39 H7           6.0370    -7.0050     5.0740 h1         1 W12       0.043700
     40 H8           4.2380    -8.0310     6.2320 hc         1 W12       0.039033
     41 H9           2.8710    -7.8530     5.1240 hc         1 W12       0.039033
     42 H10          3.4420    -9.4670     5.5720 hc         1 W12       0.039033
     43 H11          3.0570    -7.9330     2.8970 hc         1 W12       0.039033
     44 H12          4.5500    -8.3270     2.0340 hc         1 W12       0.039033
     45 H13          3.5880    -9.6160     2.7710 hc         1 W12       0.039033
     46 H14          2.4940     1.0220     6.2470 hc         1 W12       0.046950
     47 H15          2.5860    -0.7450     6.2350 hc         1 W12       0.046950
     48 H16          0.2980    -0.8280     7.2450 hc         1 W12       0.031700
     49 H17          1.4730    -0.0110     8.2850 hc         1 W12       0.031700
     50 H18          0.3110     0.9380     7.3470 hc         1 W12       0.031700
     51 H19         -5.6730     0.4530    -3.6980 ho         1 W12       0.406000
     52 H21         -4.4770     1.0050    -1.8560 h1         1 W12       0.030200
     53 H22         -2.2920     0.8370    -3.0700 h1         1 W12       0.055700
     54 H23         -1.8310    -1.0300    -3.9350 ho         1 W12       0.414000
     55 H24         -2.4410    -0.8840    -0.5700 h1         1 W12       0.044200
     56 H25         -2.4400     0.8850    -0.5700 h1         1 W12       0.044200
     57 H26         -1.7740    -0.0070     1.2060 ha         1 W12       0.137500
     58 H27          1.6010     2.5930     4.5010 hc         1 W12       0.046950
     59 H28          1.6320     2.4550     2.7370 hc         1 W12       0.046950
     60 H29          2.5910     4.6150     3.4980 hc         1 W12       0.031700
     61 H30          3.8040     3.7350     4.4380 hc         1 W12       0.031700
     62 H31          3.8020     3.6240     2.6720 hc         1 W12       0.031700
     63 H32          0.5050    -0.7980     4.8400 hc         1 W12       0.046700
     64 H33          0.5490     0.9700     4.7700 hc         1 W12       0.046700
     65 H34          1.2680    -2.5500     3.5700 ha         1 W12       0.137000
     66 H35          2.5990    -4.6160     3.7540 ha         1 W12       0.138000
     67 H36          4.8090    -0.2150     4.0640 ha         1 W12       0.137000
     68 H37          3.7510    -6.0120     4.8100 h1         1 W12       0.048200
     69 H38          3.9910    -6.0120     3.0580 h1         1 W12       0.048200
     70 H39          7.2210    -6.7900     3.3270 ho         1 W12       0.408000
     71 H40          5.1510   -10.5230     4.4380 hc         1 W12       0.039033
     72 H41          6.3070    -9.6570     3.4170 hc         1 W12       0.039033
     73 H42          6.3330    -9.4300     5.1710 hc         1 W12       0.039033
     74 H20         -4.6260    -0.7550    -1.9520 h1         1 W12       0.030200
     75 O01         -4.7550     0.2430    -3.7510 oh         1 W12      -0.603800
@<TRIPOS>BOND
     1    15    14 1
     2     8    27 ar
     3     8    28 ar
     4    27     7 ar
     5    24    14 1
     6    24     6 1
     7    23    22 1
     8     9     6 1
     9     9    22 1
    10     6     7 1
    11     6     4 1
    12     7    25 ar
    13    29    28 1
    14    29    30 1
    15    28    26 ar
    16    31    10 1
    17    10    30 1
    18    10    11 1
    19    25    26 ar
    20     4     5 ar
    21     4     3 ar
    22     5    21 ar
    23    12    11 1
    24     3     2 ar
    25    11    13 1
    26    11    32 1
    27    21     1 ar
    28     2     1 ar
    29     1    20 1
    30    75    16 1
    31    17    18 1
    32    17    16 1
    33    17    19 1
    34    20    19 1
    35     2    33 1
    36     3    34 1
    37     5    35 1
    38     8    36 1
    39     9    37 1
    40     9    38 1
    41    10    39 1
    42    12    40 1
    43    12    41 1
    44    12    42 1
    45    13    43 1
    46    13    44 1
    47    13    45 1
    48    14    46 1
    49    14    47 1
    50    15    48 1
    51    15    49 1
    52    15    50 1
    53    75    51 1
    54    16    74 1
    55    16    52 1
    56    17    53 1
    57    18    54 1
    58    19    55 1
    59    19    56 1
    60    21    57 1
    61    22    58 1
    62    22    59 1
    63    23    60 1
    64    23    61 1
    65    23    62 1
    66    24    63 1
    67    24    64 1
    68    25    65 1
    69    26    66 1
    70    27    67 1
    71    30    68 1
    72    30    69 1
    73    31    70 1
    74    32    71 1
    75    32    72 1
    76    32    73 1
@<TRIPOS>SUBSTRUCTURE
     1 W12         1 TEMP              0 ****  ****    0 ROOT
