@<TRIPOS>MOLECULE
molecule
   53    56     1     0     0
SMALL
bcc


@<TRIPOS>ATOM
      1 C4           0.0000     0.0000     0.0000 ca         1 W13      -0.203000
      2 C5           1.3880     0.0000     0.0000 ca         1 W13       0.225600
      3 C11          0.3040    -1.4400    -4.2270 c3         1 W13       0.139400
      4 C7           1.3580    -0.0030    -2.4800 c3         1 W13       0.239500
      5 C8           2.2390     0.6000    -3.5790 c3         1 W13      -0.135400
      6 C9           1.4980     0.5230    -4.9150 c3         1 W13       0.139400
      7 C12          0.9970    -1.4410    -2.8610 c3         1 W13      -0.135400
      8 C13          2.0800     0.0000     1.2060 ca         1 W13      -0.046600
      9 C3          -0.6910     0.0070     1.1960 ca         1 W13      -0.062000
     10 C2           0.0000     0.0130     2.3950 ca         1 W13      -0.030600
     11 N6           2.0890    -0.0020    -1.2090 nu         1 W13      -0.809600
     12 O10          1.1650    -0.8390    -5.1960 os         1 W13      -0.417600
     13 Cl14         3.8160    -0.0000     1.2110 cl         1 W13      -0.098400
     14 C15          1.3840     0.0010     2.3990 ca         1 W13      -0.017300
     15 C16          2.1330     0.0070     3.7070 c3         1 W13      -0.022400
     16 C17          1.7610     1.2620     4.5050 c3         1 W13      -0.185400
     17 C18          2.4520     1.2160     5.8440 c          1 W13       0.575300
     18 C19          2.7620    -0.0180     6.4460 ce         1 W13      -0.181600
     19 S20          3.5760    -0.0320     8.0080 ss         1 W13      -0.133500
     20 C21          5.1550     0.6570     7.6390 ca         1 W13       0.042900
     21 C22          6.0550     0.9290     8.6650 ca         1 W13       0.036400
     22 Cl23         5.6240     0.5880    10.3120 cl         1 W13      -0.100400
     23 C24          7.2920     1.4690     8.3710 ca         1 W13      -0.107000
     24 C25          7.6360     1.7400     7.0580 ca         1 W13      -0.132000
     25 C26          6.7430     1.4720     6.0360 ca         1 W13      -0.111000
     26 C27          5.5070     0.9270     6.3220 ca         1 W13      -0.123000
     27 C28          2.4510    -1.1890     5.8560 c2         1 W13       0.196900
     28 O29          2.7720    -2.3480     6.4700 oh         1 W13      -0.507100
     29 C30          1.7510    -1.2300     4.5230 c3         1 W13      -0.092200
     30 O31          2.7440     2.2520     6.4070 o          1 W13      -0.508100
     31 H1          -0.5420    -0.0020    -0.9380 ha         1 W13       0.148000
     32 H3          -0.6170    -0.8730    -4.1630 h1         1 W13       0.050700
     33 H4           0.4520     0.5830    -2.3820 h1         1 W13       0.058700
     34 H5           2.4510     1.6360    -3.3430 hc         1 W13       0.060700
     35 H6           3.1650     0.0420    -3.6460 hc         1 W13       0.060700
     36 H7           0.5900     1.1110    -4.8580 h1         1 W13       0.050700
     37 H8           2.1350     0.9070    -5.7030 h1         1 W13       0.050700
     38 H9           1.8990    -2.0380    -2.9150 hc         1 W13       0.060700
     39 H10          0.3270    -1.8550    -2.1170 hc         1 W13       0.060700
     40 H11         -1.7740     0.0070     1.1960 ha         1 W13       0.149000
     41 H12          3.0900     0.0260    -1.2080 hn         1 W13       0.453800
     42 H13          3.2000     0.0010     3.5200 hc         1 W13       0.083700
     43 H14          0.6880     1.2920     4.6530 hc         1 W13       0.088700
     44 H15          2.0820     2.1430     3.9630 hc         1 W13       0.088700
     45 H16          7.9930     1.6800     9.1690 ha         1 W13       0.143000
     46 H17          8.6060     2.1650     6.8310 ha         1 W13       0.134000
     47 H18          7.0170     1.6830     5.0100 ha         1 W13       0.131000
     48 H19          4.8080     0.7170     5.5210 ha         1 W13       0.136000
     49 H20          2.0050    -2.7090     6.8810 ho         1 W13       0.440000
     50 H21          0.6790    -1.2410     4.6810 hc         1 W13       0.084200
     51 H22          2.0510    -2.1220     3.9860 hc         1 W13       0.084200
     52 Cl1         -0.8710     0.0210     3.8970 cl         1 W13      -0.101400
     53 H2           0.0870    -2.4590    -4.5220 h1         1 W13       0.050700
@<TRIPOS>BOND
     1    52    10 1
     2     9     1 ar
     3     9    10 ar
     4     1     2 ar
     5    10    14 ar
     6     6     5 1
     7     6    12 1
     8     5     4 1
     9    12     3 1
    10     3     7 1
    11     2     8 ar
    12     2    11 1
    13     7     4 1
    14    14     8 ar
    15    14    15 1
    16    16    15 1
    17    16    17 1
    18     4    11 1
    19     8    13 1
    20    15    29 1
    21    30    17 2
    22    17    18 1
    23    29    27 1
    24    18    27 2
    25    18    19 1
    26    27    28 1
    27    19    20 1
    28    26    20 ar
    29    26    25 ar
    30    20    21 ar
    31    25    24 ar
    32    21    22 1
    33    21    23 ar
    34    24    23 ar
    35     1    31 1
    36     3    53 1
    37     3    32 1
    38     4    33 1
    39     5    34 1
    40     5    35 1
    41     6    36 1
    42     6    37 1
    43     7    38 1
    44     7    39 1
    45     9    40 1
    46    11    41 1
    47    15    42 1
    48    16    43 1
    49    16    44 1
    50    23    45 1
    51    24    46 1
    52    25    47 1
    53    26    48 1
    54    28    49 1
    55    29    50 1
    56    29    51 1
@<TRIPOS>SUBSTRUCTURE
     1 W13         1 TEMP              0 ****  ****    0 ROOT
