@<TRIPOS>MOLECULE
W13
   53    56     1     0     0
SMALL
bcc


@<TRIPOS>ATOM
      1 C4           0.0000     0.0000     0.0000 ca         1 W13      -0.188000
      2 C5           1.3880     0.0000     0.0000 ca         1 W13       0.086600
      3 C11          0.3040    -1.4400    -4.2270 c3         1 W13       0.219900
      4 C7           1.3580    -0.0030    -2.4800 c3         1 W13       0.135500
      5 C8           2.2390     0.6000    -3.5790 c3         1 W13      -0.084400
      6 C9           1.4980     0.5230    -4.9150 c3         1 W13       0.219900
      7 C12          0.9970    -1.4410    -2.8610 c3         1 W13      -0.084400
      8 C13          2.0800     0.0000     1.2060 ca         1 W13      -0.111600
      9 C3          -0.6910     0.0070     1.1960 ca         1 W13      -0.031000
     10 C2           0.0000     0.0130     2.3950 ca         1 W13      -0.097600
     11 N6           2.0890    -0.0020    -1.2090 nu         1 W13      -0.411600
     12 O10          1.1650    -0.8390    -5.1960 os         1 W13      -0.405600
     13 Cl14         3.8160    -0.0000     1.2110 cl         1 W13      -0.008400
     14 C15          1.3840     0.0010     2.3990 ca         1 W13      -0.025300
     15 C16          2.1330     0.0070     3.7070 c3         1 W13       0.008600
     16 C17          1.7610     1.2620     4.5050 c3         1 W13      -0.145400
     17 C18          2.4520     1.2160     5.8440 c          1 W13       0.624300
     18 C19          2.7620    -0.0180     6.4460 ce         1 W13      -0.168600
     19 S20          3.5760    -0.0320     8.0080 ss         1 W13      -0.264500
     20 C21          5.1550     0.6570     7.6390 ca         1 W13       0.086900
     21 C22          6.0550     0.9290     8.6650 ca         1 W13      -0.017600
     22 Cl23         5.6240     0.5880    10.3120 cl         1 W13      -0.004400
     23 C24          7.2920     1.4690     8.3710 ca         1 W13      -0.089000
     24 C25          7.6360     1.7400     7.0580 ca         1 W13      -0.099000
     25 C26          6.7430     1.4720     6.0360 ca         1 W13      -0.086000
     26 C27          5.5070     0.9270     6.3220 ca         1 W13      -0.106000
     27 C28          2.4510    -1.1890     5.8560 c2         1 W13       0.235900
     28 O29          2.7720    -2.3480     6.4700 oh         1 W13      -0.484100
     29 C30          1.7510    -1.2300     4.5230 c3         1 W13      -0.051200
     30 O31          2.7440     2.2520     6.4070 o          1 W13      -0.538100
     31 H1          -0.5420    -0.0020    -0.9380 ha         1 W13       0.127000
     32 H3          -0.6170    -0.8730    -4.1630 h1         1 W13       0.009950
     33 H4           0.4520     0.5830    -2.3820 h1         1 W13       0.041700
     34 H5           2.4510     1.6360    -3.3430 hc         1 W13       0.031450
     35 H6           3.1650     0.0420    -3.6460 hc         1 W13       0.031450
     36 H7           0.5900     1.1110    -4.8580 h1         1 W13       0.009950
     37 H8           2.1350     0.9070    -5.7030 h1         1 W13       0.009950
     38 H9           1.8990    -2.0380    -2.9150 hc         1 W13       0.031450
     39 H10          0.3270    -1.8550    -2.1170 hc         1 W13       0.031450
     40 H11         -1.7740     0.0070     1.1960 ha         1 W13       0.114000
     41 H12          3.0900     0.0260    -1.2080 hn         1 W13       0.305800
     42 H13          3.2000     0.0010     3.5200 hc         1 W13       0.052700
     43 H14          0.6880     1.2920     4.6530 hc         1 W13       0.058700
     44 H15          2.0820     2.1430     3.9630 hc         1 W13       0.058700
     45 H16          7.9930     1.6800     9.1690 ha         1 W13       0.114000
     46 H17          8.6060     2.1650     6.8310 ha         1 W13       0.104000
     47 H18          7.0170     1.6830     5.0100 ha         1 W13       0.102000
     48 H19          4.8080     0.7170     5.5210 ha         1 W13       0.115000
     49 H20          2.0050    -2.7090     6.8810 ho         1 W13       0.422000
     50 H21          0.6790    -1.2410     4.6810 hc         1 W13       0.054200
     51 H22          2.0510    -2.1220     3.9860 hc         1 W13       0.054200
     52 Cl1         -0.8710     0.0210     3.8970 cl         1 W13      -0.005400
     53 H2           0.0870    -2.4590    -4.5220 h1         1 W13       0.009950
@<TRIPOS>BOND
     1     1     2 ar  
     2     1     9 ar  
     3     1    31 1   
     4     2     8 ar  
     5     2    11 1   
     6     3     7 1   
     7     3    12 1   
     8     3    32 1   
     9     3    53 1   
    10     4     5 1   
    11     4     7 1   
    12     4    11 1   
    13     4    33 1   
    14     5     6 1   
    15     5    34 1   
    16     5    35 1   
    17     6    12 1   
    18     6    36 1   
    19     6    37 1   
    20     7    38 1   
    21     7    39 1   
    22     8    13 1   
    23     8    14 ar  
    24     9    10 ar  
    25     9    40 1   
    26    10    14 ar  
    27    10    52 1   
    28    11    41 1   
    29    14    15 1   
    30    15    16 1   
    31    15    29 1   
    32    15    42 1   
    33    16    17 1   
    34    16    43 1   
    35    16    44 1   
    36    17    18 1   
    37    17    30 2   
    38    18    19 1   
    39    18    27 2   
    40    19    20 1   
    41    20    21 ar  
    42    20    26 ar  
    43    21    22 1   
    44    21    23 ar  
    45    23    24 ar  
    46    23    45 1   
    47    24    25 ar  
    48    24    46 1   
    49    25    26 ar  
    50    25    47 1   
    51    26    48 1   
    52    27    28 1   
    53    27    29 1   
    54    28    49 1   
    55    29    50 1   
    56    29    51 1   
@<TRIPOS>SUBSTRUCTURE
     1 W13         1 TEMP              0 ****  ****    0 ROOT
