@<TRIPOS>MOLECULE
W14
   27    28     1     0     0
SMALL
bcc


@<TRIPOS>ATOM
      1 OAA          0.0000     0.0000     0.0000 o          1 W14      -0.586100
      2 FAC          1.0580    -1.2320    -2.0230 f          1 W14      -0.196300
      3 FAD          2.7710    -1.6930    -0.5830 f          1 W14      -0.196300
      4 FAE          2.7710     0.2600    -1.7720 f          1 W14      -0.196300
      5 CAF          4.8430    -0.2540     4.9420 ca         1 W14      -0.130000
      6 CAG          3.4990     0.0000     4.7680 ca         1 W14      -0.077000
      7 CAH          5.1890     0.0500     2.5920 ca         1 W14      -0.132000
      8 CAI          1.5080     0.5310     3.3920 c3         1 W14       0.017900
      9 CAJ          1.1800     1.2790     2.1010 c3         1 W14       0.050000
     10 CAK          3.3530     0.6260     1.0270 c3         1 W14       0.087300
     11 CAL          1.2130     0.0000     0.0000 c          1 W14       0.530100
     12 CAM          5.6960    -0.2320     3.8490 ca         1 W14       0.130100
     13 CAN          2.9900     0.2800     3.5050 ca         1 W14      -0.093300
     14 CAO          3.8370     0.3100     2.4210 ca         1 W14      -0.084300
     15 NAP          1.8870     0.6070     0.9980 n          1 W14      -0.117800
     16 CAQ          1.9670    -0.6780    -1.1140 c3         1 W14       0.509900
     17 HOAB         7.1820    -1.4060     3.8830 ho         1 W14       0.405000
     18 HAF          5.2430    -0.3920     5.9390 ha         1 W14       0.117000
     19 HAG          2.8340    -0.0170     5.6230 ha         1 W14       0.109000
     20 HAH          5.8530     0.0710     1.7360 ha         1 W14       0.118000
     21 HAI          1.1840     1.1250     4.2380 hc         1 W14       0.032200
     22 HAIA         0.9860    -0.4180     3.3950 hc         1 W14       0.032200
     23 HAJ          1.5370     2.2990     2.1820 h1         1 W14       0.044200
     24 HAJA         0.1130     1.2260     1.9220 h1         1 W14       0.044200
     25 HAK          3.7050     1.6080     0.7390 h1         1 W14       0.040700
     26 HAKA         3.7350    -0.1170     0.3380 h1         1 W14       0.040700
     27 OAB          7.0210    -0.4860     4.0110 oh         1 W14      -0.499100
@<TRIPOS>BOND
     1     1    11 2   
     2     2    16 1   
     3     3    16 1   
     4     4    16 1   
     5     5     6 ar  
     6     5    12 ar  
     7     5    18 1   
     8     6    13 ar  
     9     6    19 1   
    10     7    12 ar  
    11     7    14 ar  
    12     7    20 1   
    13     8     9 1   
    14     8    13 1   
    15     8    21 1   
    16     8    22 1   
    17     9    15 1   
    18     9    23 1   
    19     9    24 1   
    20    10    14 1   
    21    10    15 1   
    22    10    25 1   
    23    10    26 1   
    24    11    15 1   
    25    11    16 1   
    26    12    27 1   
    27    13    14 ar  
    28    17    27 1   
@<TRIPOS>SUBSTRUCTURE
     1 W14         1 TEMP              0 ****  ****    0 ROOT
