@<TRIPOS>MOLECULE
molecule
   27    28     1     0     0
SMALL
bcc


@<TRIPOS>ATOM
      1 OAA          0.0000     0.0000     0.0000 o          1 W14      -0.549100
      2 FAC          1.0580    -1.2320    -2.0230 f          1 W14      -0.210967
      3 FAD          2.7710    -1.6930    -0.5830 f          1 W14      -0.210967
      4 FAE          2.7710     0.2600    -1.7720 f          1 W14      -0.210967
      5 CAF          4.8430    -0.2540     4.9420 ca         1 W14      -0.145000
      6 CAG          3.4990     0.0000     4.7680 ca         1 W14      -0.113000
      7 CAH          5.1890     0.0500     2.5920 ca         1 W14      -0.148000
      8 CAI          1.5080     0.5310     3.3920 c3         1 W14      -0.055100
      9 CAJ          1.1800     1.2790     2.1010 c3         1 W14       0.111000
     10 CAK          3.3530     0.6260     1.0270 c3         1 W14       0.138300
     11 CAL          1.2130     0.0000     0.0000 c          1 W14       0.623100
     12 CAM          5.6960    -0.2320     3.8490 ca         1 W14       0.109100
     13 CAN          2.9900     0.2800     3.5050 ca         1 W14      -0.076300
     14 CAO          3.8370     0.3100     2.4210 ca         1 W14      -0.085300
     15 NAP          1.8870     0.6070     0.9980 n          1 W14      -0.470800
     16 CAQ          1.9670    -0.6780    -1.1140 c3         1 W14       0.551900
     17 HOAB         7.1820    -1.4060     3.8830 ho         1 W14       0.422000
     18 HAF          5.2430    -0.3920     5.9390 ha         1 W14       0.145000
     19 HAG          2.8340    -0.0170     5.6230 ha         1 W14       0.137000
     20 HAH          5.8530     0.0710     1.7360 ha         1 W14       0.143000
     21 HAI          1.1840     1.1250     4.2380 hc         1 W14       0.064700
     22 HAIA         0.9860    -0.4180     3.3950 hc         1 W14       0.064700
     23 HAJ          1.5370     2.2990     2.1820 h1         1 W14       0.073700
     24 HAJA         0.1130     1.2260     1.9220 h1         1 W14       0.073700
     25 HAK          3.7050     1.6080     0.7390 h1         1 W14       0.070700
     26 HAKA         3.7350    -0.1170     0.3380 h1         1 W14       0.070700
     27 OAB          7.0210    -0.4860     4.0110 oh         1 W14      -0.520100
@<TRIPOS>BOND
     1     1    11 2
     2    27    12 1
     3     2    16 1
     4     3    16 1
     5     4    16 1
     6     5     6 ar
     7     5    12 ar
     8     6    13 ar
     9     7    12 ar
    10     7    14 ar
    11     8     9 1
    12     8    13 1
    13     9    15 1
    14    10    14 1
    15    10    15 1
    16    11    15 1
    17    11    16 1
    18    13    14 ar
    19    27    17 1
    20     5    18 1
    21     6    19 1
    22     7    20 1
    23     8    21 1
    24     8    22 1
    25     9    23 1
    26     9    24 1
    27    10    25 1
    28    10    26 1
@<TRIPOS>SUBSTRUCTURE
     1 W14         1 TEMP              0 ****  ****    0 ROOT
