@<TRIPOS>MOLECULE
W16
   15    15     1     0     0
SMALL
bcc


@<TRIPOS>ATOM
      1 ClA          0.0000     0.0000     0.0000 cl         1 W16      -0.135400
      2 CAC          1.8020     0.0000     0.0000 c3         1 W16       0.076000
      3 CAD          2.3120     0.0000     1.4420 c3         1 W16      -0.040700
      4 CAI          3.8200     0.0000     1.4420 cc         1 W16       0.409700
      5 SAG          4.8590    -1.4250     1.4420 ss         1 W16      -0.454800
      6 NAF          4.5810     1.0460     1.4360 nd         1 W16      -0.260000
      7 NAE          5.8290     0.8690     1.4360 nd         1 W16      -0.324000
      8 CAH          6.2650    -0.3580     1.4410 cc         1 W16       0.536300
      9 NAA          7.5940    -0.7550     1.4390 nv         1 W16      -0.508500
     10 HAC1         2.1630    -0.8850    -0.5110 h1         1 W16       0.030700
     11 HAC2         2.1630     0.8850    -0.5110 h1         1 W16       0.030700
     12 HAD1         1.9510     0.8840     1.9530 hc         1 W16       0.041200
     13 HAD2         1.9510    -0.8850     1.9520 hc         1 W16       0.041200
     14 HAA1         8.1970    -0.4850     2.1910 hn         1 W16       0.278300
     15 HAA2         7.9450    -1.3250     0.6950 hn         1 W16       0.278300
@<TRIPOS>BOND
     1     1     2 1   
     2     2     3 1   
     3     2    10 1   
     4     2    11 1   
     5     3     4 1   
     6     3    12 1   
     7     3    13 1   
     8     4     5 1   
     9     4     6 2   
    10     5     8 1   
    11     6     7 1   
    12     7     8 2   
    13     8     9 1   
    14     9    14 1   
    15     9    15 1   
@<TRIPOS>SUBSTRUCTURE
     1 W16         1 TEMP              0 ****  ****    0 ROOT
