@<TRIPOS>MOLECULE
molecule
   57    61     1     0     0
SMALL
bcc


@<TRIPOS>ATOM
      1 C1           0.0000     0.0000     0.0000 ca         1 W19      -0.113000
      2 C2           3.9960    -3.5930     1.3360 ca         1 W19      -0.126000
      3 C3           1.3880     0.0000     0.0000 ca         1 W19      -0.137000
      4 C4           3.3490    -2.3770     1.2450 ca         1 W19      -0.179000
      5 C5          -0.6910     0.0010     1.1870 ca         1 W19      -0.095000
      6 C6           1.9180     0.0020     3.7760 cc         1 W19      -0.119200
      7 C7           6.1130    -2.4590     1.4510 ca         1 W19      -0.090000
      8 C8           1.0060     0.0020     4.7270 cd         1 W19      -0.079400
      9 C9           9.0250    -4.2240    -0.3060 ca         1 W19       0.746900
     10 C10          1.3890     0.0010     2.4220 ca         1 W19      -0.092800
     11 C11          8.0090    -6.2250     1.1620 ca         1 W19      -0.399400
     12 C12          5.3800    -3.6380     1.4430 ca         1 W19       0.127600
     13 C13          2.0840     0.0000     1.1870 ca         1 W19       0.130100
     14 C14          4.0810    -1.1990     1.2600 ca         1 W19       0.124100
     15 C15         -0.0070     0.0020     2.4080 ca         1 W19      -0.006100
     16 C16          5.4640    -1.2420     1.3660 ca         1 W19       0.015400
     17 C17          9.2940    -6.3240     0.5880 ca         1 W19       0.707200
     18 C18          7.2860    -5.0350     0.9790 ca         1 W19       0.746200
     19 C19          7.4740    -7.3540     1.9150 ce         1 W19       0.003800
     20 C20          8.2280    -7.9490     2.8790 cf         1 W19      -0.199400
     21 C21          7.7420    -9.0940     3.5560 c          1 W19       0.679300
     22 C22          9.5820    -7.3840     3.2220 c3         1 W19      -0.049200
     23 C23         10.6010    -7.7050     2.1320 c3         1 W19       0.200800
     24 C24          7.9900   -10.8650     5.2120 c3         1 W19       0.116000
     25 C25          9.0260   -11.3280     6.2370 c3         1 W19       0.119400
     26 N26          9.7510    -5.3140    -0.1380 nb         1 W19      -0.825000
     27 N27          7.8330    -4.0740     0.2340 nb         1 W19      -0.815000
     28 N28         10.0370    -7.4660     0.8050 nu         1 W19      -0.817900
     29 N30          8.4920    -9.6800     4.5110 ns         1 W19      -0.581900
     30 O31          6.6480    -9.5490     3.2760 o          1 W19      -0.625100
     31 O32          9.1780   -10.3280     7.2470 oh         1 W19      -0.611800
     32 O33          3.4430    -0.0010     1.1750 os         1 W19      -0.235200
     33 S34         -0.6150     0.0030     4.0590 ss         1 W19      -0.105500
     34 Cl1          6.3800     0.2320     1.3830 cl         1 W19      -0.089400
     35 H1          -0.5400     0.0000    -0.9390 ha         1 W19       0.141000
     36 H2           3.4230    -4.5130     1.3280 ha         1 W19       0.139000
     37 H3           1.9270    -0.0010    -0.9400 ha         1 W19       0.150000
     38 H4           2.2690    -2.3430     1.1630 ha         1 W19       0.155000
     39 H5          -1.7740     0.0010     1.1790 ha         1 W19       0.138000
     40 H6           2.9810     0.0010     3.9870 ha         1 W19       0.162000
     41 H7           7.1930    -2.4930     1.5340 ha         1 W19       0.174000
     42 H8           1.2290     0.0020     5.7870 h4         1 W19       0.174000
     43 H9           9.4310    -3.4170    -0.9030 h5         1 W19       0.062100
     44 H10          6.4870    -7.7380     1.6860 ha         1 W19       0.157000
     45 H11          9.5010    -6.3080     3.3260 hc         1 W19       0.056200
     46 H12          9.9180    -7.8120     4.1590 hc         1 W19       0.056200
     47 H13         10.8900    -8.7460     2.2120 h1         1 W19       0.045200
     48 H14         11.4730    -7.0760     2.2650 h1         1 W19       0.045200
     49 H15          7.8100   -11.6580     4.4970 h1         1 W19       0.062200
     50 H16          7.0650   -10.6190     5.7190 h1         1 W19       0.062200
     51 H17          9.9760   -11.4890     5.7430 h1         1 W19       0.030700
     52 H18          8.6940   -12.2540     6.6930 h1         1 W19       0.030700
     53 H19         10.7620    -7.5270     0.1190 hn         1 W19       0.395800
     54 H20          5.5990    -5.6330     2.0210 hn         1 W19       0.467800
     55 H21          9.3820    -9.2940     4.7560 hn         1 W19       0.322500
     56 H22          9.5940   -10.7070     8.0040 ho         1 W19       0.406000
     57 N29          6.0350    -4.8710     1.5410 nu         1 W19      -0.754300
@<TRIPOS>BOND
     1     1     5 ar
     2     1     3 ar
     3     5    15 ar
     4     3    13 ar
     5    15    33 1
     6    15    10 ar
     7    13    10 ar
     8    13    32 1
     9    33     8 1
    10    10     6 1
    11    32    14 1
    12     6     8 2
    13    34    16 1
    14    14    16 ar
    15    14     4 ar
    16    16     7 ar
    17     4     2 ar
    18     7    12 ar
    19     2    12 ar
    20    12    57 1
    21    57    18 1
    22    27    18 ar
    23    27     9 ar
    24    18    11 ar
    25     9    26 ar
    26    11    19 1
    27    11    17 ar
    28    26    17 ar
    29    19    20 2
    30    17    28 1
    31    24    29 1
    32    24    25 1
    33    29    21 1
    34    25    31 1
    35    20    21 1
    36    20    22 1
    37    28    23 1
    38    21    30 2
    39    23    22 1
    40     1    35 1
    41     2    36 1
    42     3    37 1
    43     4    38 1
    44     5    39 1
    45     6    40 1
    46     7    41 1
    47     8    42 1
    48     9    43 1
    49    19    44 1
    50    22    45 1
    51    22    46 1
    52    23    47 1
    53    23    48 1
    54    24    49 1
    55    24    50 1
    56    25    51 1
    57    25    52 1
    58    28    53 1
    59    57    54 1
    60    29    55 1
    61    31    56 1
@<TRIPOS>SUBSTRUCTURE
     1 W19         1 TEMP              0 ****  ****    0 ROOT
