@<TRIPOS>MOLECULE
W19
   57    61     1     0     0
SMALL
bcc


@<TRIPOS>ATOM
      1 C1           0.0000     0.0000     0.0000 ca         1 W19      -0.082000
      2 C2           3.9960    -3.5930     1.3360 ca         1 W19      -0.089000
      3 C3           1.3880     0.0000     0.0000 ca         1 W19      -0.118000
      4 C4           3.3490    -2.3770     1.2450 ca         1 W19      -0.169000
      5 C5          -0.6910     0.0010     1.1870 ca         1 W19      -0.060000
      6 C6           1.9180     0.0020     3.7760 cc         1 W19      -0.083200
      7 C7           6.1130    -2.4590     1.4510 ca         1 W19      -0.069000
      8 C8           1.0060     0.0020     4.7270 cd         1 W19      -0.006400
      9 C9           9.0250    -4.2240    -0.3060 ca         1 W19       0.702900
     10 C10          1.3890     0.0010     2.4220 ca         1 W19      -0.097800
     11 C11          8.0090    -6.2250     1.1620 ca         1 W19      -0.410400
     12 C12          5.3800    -3.6380     1.4430 ca         1 W19      -0.034400
     13 C13          2.0840     0.0000     1.1870 ca         1 W19       0.141100
     14 C14          4.0810    -1.1990     1.2600 ca         1 W19       0.131100
     15 C15         -0.0070     0.0020     2.4080 ca         1 W19       0.035900
     16 C16          5.4640    -1.2420     1.3660 ca         1 W19      -0.056600
     17 C17          9.2940    -6.3240     0.5880 ca         1 W19       0.574200
     18 C18          7.2860    -5.0350     0.9790 ca         1 W19       0.553200
     19 C19          7.4740    -7.3540     1.9150 ce         1 W19       0.045800
     20 C20          8.2280    -7.9490     2.8790 cf         1 W19      -0.227400
     21 C21          7.7420    -9.0940     3.5560 c          1 W19       0.601300
     22 C22          9.5820    -7.3840     3.2220 c3         1 W19       0.016800
     23 C23         10.6010    -7.7050     2.1320 c3         1 W19       0.169800
     24 C24          7.9900   -10.8650     5.2120 c3         1 W19       0.044000
     25 C25          9.0260   -11.3280     6.2370 c3         1 W19       0.209400
     26 N26          9.7510    -5.3140    -0.1380 nb         1 W19      -0.724000
     27 N27          7.8330    -4.0740     0.2340 nb         1 W19      -0.715000
     28 N28         10.0370    -7.4660     0.8050 nu         1 W19      -0.513900
     29 N30          8.4920    -9.6800     4.5110 ns         1 W19      -0.197900
     30 O31          6.6480    -9.5490     3.2760 o          1 W19      -0.666100
     31 O32          9.1780   -10.3280     7.2470 oh         1 W19      -0.597800
     32 O33          3.4430    -0.0010     1.1750 os         1 W19      -0.212200
     33 S34         -0.6150     0.0030     4.0590 ss         1 W19      -0.219500
     34 Cl1          6.3800     0.2320     1.3830 cl         1 W19      -0.005400
     35 H1          -0.5400     0.0000    -0.9390 ha         1 W19       0.110000
     36 H2           3.4230    -4.5130     1.3280 ha         1 W19       0.110000
     37 H3           1.9270    -0.0010    -0.9400 ha         1 W19       0.122000
     38 H4           2.2690    -2.3430     1.1630 ha         1 W19       0.130000
     39 H5          -1.7740     0.0010     1.1790 ha         1 W19       0.113000
     40 H6           2.9810     0.0010     3.9870 ha         1 W19       0.129000
     41 H7           7.1930    -2.4930     1.5340 ha         1 W19       0.146000
     42 H8           1.2290     0.0020     5.7870 h4         1 W19       0.149000
     43 H9           9.4310    -3.4170    -0.9030 h5         1 W19      -0.002900
     44 H10          6.4870    -7.7380     1.6860 ha         1 W19       0.129000
     45 H11          9.5010    -6.3080     3.3260 hc         1 W19       0.025200
     46 H12          9.9180    -7.8120     4.1590 hc         1 W19       0.025200
     47 H13         10.8900    -8.7460     2.2120 h1         1 W19       0.011700
     48 H14         11.4730    -7.0760     2.2650 h1         1 W19       0.011700
     49 H15          7.8100   -11.6580     4.4970 h1         1 W19       0.033200
     50 H16          7.0650   -10.6190     5.7190 h1         1 W19       0.033200
     51 H17          9.9760   -11.4890     5.7430 h1         1 W19      -0.006800
     52 H18          8.6940   -12.2540     6.6930 h1         1 W19      -0.006800
     53 H19         10.7620    -7.5270     0.1190 hn         1 W19       0.266800
     54 H20          5.5990    -5.6330     2.0210 hn         1 W19       0.297800
     55 H21          9.3820    -9.2940     4.7560 hn         1 W19       0.188500
     56 H22          9.5940   -10.7070     8.0040 ho         1 W19       0.396000
     57 N29          6.0350    -4.8710     1.5410 nu         1 W19      -0.280300
@<TRIPOS>BOND
     1     1     3 ar  
     2     1     5 ar  
     3     1    35 1   
     4     2     4 ar  
     5     2    12 ar  
     6     2    36 1   
     7     3    13 ar  
     8     3    37 1   
     9     4    14 ar  
    10     4    38 1   
    11     5    15 ar  
    12     5    39 1   
    13     6     8 2   
    14     6    10 1   
    15     6    40 1   
    16     7    12 ar  
    17     7    16 ar  
    18     7    41 1   
    19     8    33 1   
    20     8    42 1   
    21     9    26 ar  
    22     9    27 ar  
    23     9    43 1   
    24    10    13 ar  
    25    10    15 ar  
    26    11    17 ar  
    27    11    18 ar  
    28    11    19 1   
    29    12    57 1   
    30    13    32 1   
    31    14    16 ar  
    32    14    32 1   
    33    15    33 1   
    34    16    34 1   
    35    17    26 ar  
    36    17    28 1   
    37    18    27 ar  
    38    18    57 1   
    39    19    20 2   
    40    19    44 1   
    41    20    21 1   
    42    20    22 1   
    43    21    29 1   
    44    21    30 2   
    45    22    23 1   
    46    22    45 1   
    47    22    46 1   
    48    23    28 1   
    49    23    47 1   
    50    23    48 1   
    51    24    25 1   
    52    24    29 1   
    53    24    49 1   
    54    24    50 1   
    55    25    31 1   
    56    25    51 1   
    57    25    52 1   
    58    28    53 1   
    59    29    55 1   
    60    31    56 1   
    61    54    57 1   
@<TRIPOS>SUBSTRUCTURE
     1 W19         1 TEMP              0 ****  ****    0 ROOT
