@<TRIPOS>MOLECULE
W1G
   31    32     1     0     0
SMALL
bcc


@<TRIPOS>ATOM
      1 CAG        -0.1170   -0.4640    0.2770 ca        1 W1G     -0.165500
      2 CAE         1.1370    0.0180   -0.0950 ca        1 W1G     -0.103000
      3 CAD         1.9480    0.6660    0.8360 ca        1 W1G     -0.155000
      4 CAF         1.5080    0.8360    2.1500 ca        1 W1G     -0.103000
      5 CAH         0.2620    0.3600    2.5450 ca        1 W1G     -0.165500
      6 CAP        -0.5470   -0.2870    1.5960 ca        1 W1G      0.107100
      7 OAM        -1.7980   -0.6810    2.0660 os        1 W1G     -0.260200
      8 CAQ        -2.4900   -1.6050    1.2850 ca        1 W1G     -0.001900
      9 CAJ        -2.0090   -2.8960    1.0480 ca        1 W1G     -0.105000
     10 CAI        -2.8090   -3.8070    0.3680 ca        1 W1G     -0.155000
     11 CAO        -4.0890   -3.4450   -0.0750 ca        1 W1G     -0.043300
     12 CAL        -4.9270   -4.4340   -0.8130 c3        1 W1G     -0.010900
     13 CAC        -5.3680   -5.5540    0.0600 c2        1 W1G     -0.163200
     14 CAA        -6.6030   -6.0490    0.0580 c2        1 W1G     -0.219000
     15 CAK        -4.5750   -2.1590    0.1620 ca        1 W1G     -0.148000
     16 CAN        -3.7730   -1.2300    0.8430 ca        1 W1G      0.133100
     17 OAB        -4.3010    0.0180    1.0610 oh        1 W1G     -0.491100
     18 HAG        -0.7600   -0.9780   -0.4520 ha        1 W1G      0.149500
     19 HAE         1.4840   -0.1150   -1.1300 ha        1 W1G      0.135500
     20 HAD         2.9360    1.0440    0.5350 ha        1 W1G      0.135000
     21 HAF         2.1510    1.3470    2.8830 ha        1 W1G      0.135500
     22 HAH        -0.0990    0.4850    3.5760 ha        1 W1G      0.149500
     23 HAJ        -1.0040   -3.1740    1.3990 ha        1 W1G      0.149000
     24 HAI        -2.4370   -4.8250    0.1770 ha        1 W1G      0.138000
     25 HAL1       -5.8160   -3.9200   -1.2700 hc        1 W1G      0.058200
     26 HAL2       -4.3210   -4.8610   -1.6610 hc        1 W1G      0.058200
     27 HAK        -5.5780   -1.8550   -0.1720 ha        1 W1G      0.155000
     28 HAC        -4.5850   -5.9650    0.7190 ha        1 W1G      0.124000
     29 HAA1       -7.4040   -5.6530   -0.5810 ha        1 W1G      0.112500
     30 HAA2       -6.8960   -6.8890    0.7010 ha        1 W1G      0.112500
     31 HAB        -3.6390    0.5410    1.5420 ho        1 W1G      0.437000
@<TRIPOS>BOND
     1    1    2 ar  
     2    1    6 ar  
     3    1   18 1   
     4    2    3 ar  
     5    2   19 1   
     6    3    4 ar  
     7    3   20 1   
     8    4    5 ar  
     9    4   21 1   
    10    5    6 ar  
    11    5   22 1   
    12    6    7 1   
    13    7    8 1   
    14    8    9 ar  
    15    8   16 ar  
    16    9   10 ar  
    17    9   23 1   
    18   10   11 ar  
    19   10   24 1   
    20   11   12 1   
    21   11   15 ar  
    22   12   13 1   
    23   12   25 1   
    24   12   26 1   
    25   13   14 2   
    26   13   28 1   
    27   14   29 1   
    28   14   30 1   
    29   15   16 ar  
    30   15   27 1   
    31   16   17 1   
    32   17   31 1   
@<TRIPOS>SUBSTRUCTURE
     1 W1G         1 TEMP              0 ****  ****    0 ROOT
