@<TRIPOS>MOLECULE
molecule
   31    32     1     0     0
SMALL
bcc


@<TRIPOS>ATOM
      1 CAG          0.0000     0.0000     0.0000 ca         1 W1G      -0.142500
      2 CAE          1.3810     0.0000     0.0000 ca         1 W1G      -0.117500
      3 CAD          2.0740     0.0000     1.1970 ca         1 W1G      -0.133000
      4 CAF          1.3860     0.0010     2.3960 ca         1 W1G      -0.117500
      5 CAH          0.0050     0.0030     2.4020 ca         1 W1G      -0.142500
      6 CAP         -0.6920     0.0020     1.2020 ca         1 W1G       0.101100
      7 OAM         -2.0510     0.0040     1.2050 os         1 W1G      -0.233200
      8 CAQ         -2.6910    -1.1070     0.7500 ca         1 W1G       0.116100
      9 CAJ         -1.9670    -2.2420     0.4240 ca         1 W1G      -0.195000
     10 CAI         -2.6190    -3.3700    -0.0380 ca         1 W1G      -0.101000
     11 CAO         -3.9940    -3.3680    -0.1750 ca         1 W1G      -0.097300
     12 CAL         -4.7000    -4.6010    -0.6800 c3         1 W1G      -0.000900
     13 CAC         -5.0700    -5.4810     0.4870 c2         1 W1G      -0.167200
     14 CAA         -6.3140    -5.8550     0.6570 c2         1 W1G      -0.223000
     15 CAK         -4.7240    -2.2400     0.1480 ca         1 W1G      -0.129000
     16 CAN         -4.0770    -1.1080     0.6170 ca         1 W1G       0.085100
     17 OAB         -4.7930     0.0010     0.9420 oh         1 W1G      -0.504100
     18 HAG         -0.5420    -0.0000    -0.9380 ha         1 W1G       0.145500
     19 HAE          1.9220    -0.0010    -0.9390 ha         1 W1G       0.135000
     20 HAD          3.1570    -0.0000     1.1940 ha         1 W1G       0.133000
     21 HAF          1.9310     0.0010     3.3330 ha         1 W1G       0.135000
     22 HAH         -0.5340     0.0040     3.3420 ha         1 W1G       0.145500
     23 HAJ         -0.8890    -2.2450     0.5310 ha         1 W1G       0.150000
     24 HAI         -2.0510    -4.2560    -0.2920 ha         1 W1G       0.135000
     25 HAL1        -5.5980    -4.3110    -1.2120 hc         1 W1G       0.054700
     26 HAL2        -4.0440    -5.1450    -1.3490 hc         1 W1G       0.054700
     27 HAK         -5.8020    -2.2430     0.0410 ha         1 W1G       0.145000
     28 HAC         -4.3070    -5.8040     1.1850 ha         1 W1G       0.127000
     29 HAA1        -6.5800    -6.4870     1.4960 ha         1 W1G       0.112500
     30 HAA2        -7.0770    -5.5320    -0.0400 ha         1 W1G       0.112500
     31 HAB         -5.2580    -0.1500     1.7480 ho         1 W1G       0.416000
@<TRIPOS>BOND
     1     1     2 ar
     2     1     6 ar
     3     2     3 ar
     4     3     4 ar
     5     4     5 ar
     6     5     6 ar
     7     6     7 1
     8     7     8 1
     9     8     9 ar
    10     8    16 ar
    11     9    10 ar
    12    10    11 ar
    13    11    12 1
    14    11    15 ar
    15    12    13 1
    16    13    14 2
    17    15    16 ar
    18    16    17 1
    19     1    18 1
    20     2    19 1
    21     3    20 1
    22     4    21 1
    23     5    22 1
    24     9    23 1
    25    10    24 1
    26    12    25 1
    27    12    26 1
    28    15    27 1
    29    13    28 1
    30    14    29 1
    31    14    30 1
    32    17    31 1
@<TRIPOS>SUBSTRUCTURE
     1 W1G         1 TEMP              0 ****  ****    0 ROOT
