@<TRIPOS>MOLECULE
molecule
   30    31     1     0     0
SMALL
bcc


@<TRIPOS>ATOM
      1 O1           0.0000     0.0000     0.0000 o          1 W22      -0.693500
      2 C9           1.2130     0.0000     0.0000 c          1 W22       0.700500
      3 C10          1.8540     0.0000     1.3530 c3         1 W22       0.169500
      4 C11          1.6520     1.3700     2.0020 c3         1 W22      -0.216400
      5 C12          2.1850     1.3430     3.4120 c          1 W22       0.893600
      6 O3           2.1140     2.4420     4.1780 o          1 W22      -0.851300
      7 O2           2.6760     0.3300     3.8520 o          1 W22      -0.851300
      8 N1           1.7740    -0.0040    -1.1810 n          1 W22      -0.464800
      9 C8           0.8550     0.2170    -2.3000 c3         1 W22       0.092300
     10 C7           3.1560    -0.1930    -1.5570 c3         1 W22       0.172300
     11 C4           4.0830     0.7120    -0.7850 ca         1 W22      -0.151300
     12 C5           4.1360     0.5800     0.5880 ca         1 W22       0.162600
     13 N2           3.2810    -0.2810     1.2700 nu         1 W22      -0.755600
     14 C3           4.8660     1.6390    -1.4380 ca         1 W22      -0.108000
     15 C2           5.7460     2.4250    -0.7150 ca         1 W22      -0.175000
     16 C1           5.8400     2.2700     0.6560 ca         1 W22      -0.108000
     17 C6           5.0430     1.3540     1.3110 ca         1 W22      -0.159000
     18 H10          1.3810    -0.7590     1.9650 h1         1 W22       0.108700
     19 H111         2.1820     2.1220     1.4300 hc         1 W22       0.054700
     20 H112         0.5950     1.6090     2.0200 hc         1 W22       0.054700
     21 H2           3.6410    -0.4530     2.1870 hn         1 W22       0.429800
     22 H81C         1.4200     0.2960    -3.2210 h1         1 W22       0.033700
     23 H82C         0.3010     1.1330    -2.1370 h1         1 W22       0.033700
     24 H83C         0.1650    -0.6150    -2.3700 h1         1 W22       0.033700
     25 H71C         3.4290    -1.2190    -1.3450 h1         1 W22       0.044700
     26 H72C         3.2560     0.0390    -2.6110 h1         1 W22       0.044700
     27 HA           4.7880     1.7560    -2.5130 ha         1 W22       0.113000
     28 H6           5.1210     1.2370     2.3850 ha         1 W22       0.162000
     29 HB           6.3750     3.1460    -1.2240 ha         1 W22       0.112000
     30 H1           6.5300     2.8850     1.2210 ha         1 W22       0.121000
@<TRIPOS>BOND
     1     1     2 2
     2     2     3 1
     3     2     8 1
     4     3     4 1
     5     3    13 1
     6     4     5 1
     7     5     6 1
     8     5     7 1
     9     8     9 1
    10     8    10 1
    11    10    11 1
    12    11    12 ar
    13    11    14 ar
    14    12    13 1
    15    12    17 ar
    16    14    15 ar
    17    15    16 ar
    18    16    17 ar
    19     3    18 1
    20     4    19 1
    21     4    20 1
    22    13    21 1
    23     9    22 1
    24     9    23 1
    25     9    24 1
    26    10    25 1
    27    10    26 1
    28    14    27 1
    29    17    28 1
    30    15    29 1
    31    16    30 1
@<TRIPOS>SUBSTRUCTURE
     1 W22         1 TEMP              0 ****  ****    0 ROOT
