@<TRIPOS>MOLECULE
molecule
   28    29     1     0     0
SMALL
bcc


@<TRIPOS>ATOM
      1 CAA          0.0000     0.0000     0.0000 ca         1 W23      -0.053300
      2 CAB          1.3770     0.0000     0.0000 ca         1 W23      -0.115300
      3 CAC         -0.6860     0.0180     1.2080 ca         1 W23      -0.153000
      4 CAD         -0.8170    -0.0340    -1.2650 c3         1 W23      -0.058100
      5 CAE          2.0690     0.0000     1.2050 ca         1 W23      -0.107000
      6 CAF          2.1840     0.0140    -1.2740 c3         1 W23       0.290100
      7 CAG          1.3910     0.0120     2.4040 ca         1 W23      -0.148000
      8 CAH          0.0030     0.0240     2.4070 ca         1 W23       0.114100
      9 CAI          0.0110     0.4370    -2.4600 c3         1 W23       0.230800
     10 CAJ          1.1370    -2.9270    -3.0500 c3         1 W23       0.507700
     11 FAK         -0.2530    -2.8670    -2.9020 f          1 W23      -0.209967
     12 FAL          1.7230    -3.2490    -1.8210 f          1 W23      -0.209967
     13 FAM          1.4640    -3.9080    -3.9930 f          1 W23      -0.209967
     14 NAN          1.3070    -0.2620    -2.4170 n3         1 W23      -0.796500
     15 OAO         -0.6750     0.0420     3.5850 oh         1 W23      -0.521100
     16 OAP          3.1770    -1.2920    -3.5850 o          1 W23      -0.565300
     17 OAQ          1.0360    -0.8780    -4.7560 o          1 W23      -0.565300
     18 SAR          1.7550    -1.3160    -3.6120 s6         1 W23       1.296900
     19 HAC         -1.7690     0.0280     1.2110 ha         1 W23       0.143000
     20 HAD         -1.1310    -1.0550    -1.4450 hc         1 W23       0.067200
     21 HADA        -1.6610     0.6340    -1.1480 hc         1 W23       0.067200
     22 HAE          3.1530    -0.0090     1.2010 ha         1 W23       0.136000
     23 HAF          2.9370    -0.7620    -1.2170 h1         1 W23       0.073700
     24 HAFA         2.6200     0.9980    -1.3990 h1         1 W23       0.073700
     25 HAG          1.9380     0.0160     3.3390 ha         1 W23       0.145000
     26 HAI         -0.5050     0.1930    -3.3800 h1         1 W23       0.073200
     27 HAIA         0.1710     1.5060    -2.3950 h1         1 W23       0.073200
     28 HOAO        -0.8740    -0.8410     3.8470 ho         1 W23       0.422000
@<TRIPOS>BOND
     1     1     2 ar
     2     1     3 ar
     3     1     4 1
     4     2     5 ar
     5     2     6 1
     6     3     8 ar
     7     4     9 1
     8     5     7 ar
     9     6    14 1
    10     7     8 ar
    11     8    15 1
    12     9    14 1
    13    10    11 1
    14    10    12 1
    15    10    13 1
    16    10    18 1
    17    14    18 1
    18    16    18 2
    19    17    18 2
    20     3    19 1
    21     4    20 1
    22     4    21 1
    23     5    22 1
    24     6    23 1
    25     6    24 1
    26     7    25 1
    27     9    26 1
    28     9    27 1
    29    15    28 1
@<TRIPOS>SUBSTRUCTURE
     1 W23         1 TEMP              0 ****  ****    0 ROOT
