@<TRIPOS>MOLECULE
W29
   27    28     1     0     0
SMALL
bcc


@<TRIPOS>ATOM
      1 O2         -0.1630   -0.3010   -0.1640 oh        1 W29     -0.493100
      2 C10         1.2030   -0.1910   -0.0760 ca        1 W29      0.115100
      3 C05         1.8860   -0.0630    1.1530 ca        1 W29      0.039100
      4 O1          1.0990   -0.0550    2.2870 oh        1 W29     -0.518100
      5 C03         3.2770    0.0440    1.1840 ca        1 W29     -0.161000
      6 C06         1.9340   -0.2100   -1.2720 ca        1 W29     -0.136000
      7 C04         3.3210   -0.1020   -1.2340 ca        1 W29     -0.109000
      8 C01         4.0030    0.0250   -0.0160 ca        1 W29     -0.009000
      9 C02         5.4460    0.1260    0.0110 cc        1 W29     -0.065100
     10 S           6.3860   -0.9390    0.9230 ss        1 W29      0.012200
     11 C07         7.8290   -0.2440    0.4600 cc        1 W29     -0.166100
     12 C09         7.6340    0.8110   -0.3990 cd        1 W29     -0.153000
     13 C08         6.2420    1.0360   -0.6670 cd        1 W29     -0.087300
     14 C11         5.7710    2.1140   -1.5620 c3        1 W29     -0.022100
     15 C12         6.1930    3.4840   -1.0860 c3        1 W29     -0.087100
     16 HO2        -0.5240   -0.2670    0.7360 ho        1 W29      0.438000
     17 HO1         1.6800    0.0720    3.0500 ho        1 W29      0.430000
     18 H03         3.8000    0.1490    2.1460 ha        1 W29      0.140000
     19 H06         1.3970   -0.3110   -2.2260 ha        1 W29      0.155000
     20 H04         3.8920   -0.1200   -2.1750 ha        1 W29      0.144000
     21 H07         8.7950   -0.6050    0.8100 h4        1 W29      0.171000
     22 H09         8.4240    1.4240   -0.8400 ha        1 W29      0.154000
     23 H11         6.1850    1.9330   -2.5920 hc        1 W29      0.051200
     24 H11A        4.6500    2.0770   -1.6420 hc        1 W29      0.051200
     25 H12         5.7530    3.7060   -0.0840 hc        1 W29      0.035700
     26 H12A        7.3050    3.5490   -1.0030 hc        1 W29      0.035700
     27 H12B        5.8440    4.2620   -1.8070 hc        1 W29      0.035700
@<TRIPOS>BOND
     1    1    2 1   
     2    1   16 1   
     3    2    3 ar  
     4    2    6 ar  
     5    3    4 1   
     6    3    5 ar  
     7    4   17 1   
     8    5    8 ar  
     9    5   18 1   
    10    6    7 ar  
    11    6   19 1   
    12    7    8 ar  
    13    7   20 1   
    14    8    9 1   
    15    9   10 1   
    16    9   13 2   
    17   10   11 1   
    18   11   12 2   
    19   11   21 1   
    20   12   13 1   
    21   12   22 1   
    22   13   14 1   
    23   14   15 1   
    24   14   23 1   
    25   14   24 1   
    26   15   25 1   
    27   15   26 1   
    28   15   27 1   
@<TRIPOS>SUBSTRUCTURE
     1 W29         1 TEMP              0 ****  ****    0 ROOT
