@<TRIPOS>MOLECULE
molecule
   27    28     1     0     0
SMALL
bcc


@<TRIPOS>ATOM
      1 O2           0.0000     0.0000     0.0000 oh         1 W29      -0.513100
      2 C10          1.3610     0.0000     0.0000 ca         1 W29       0.090100
      3 C05          2.0550     0.0000     1.2070 ca         1 W29       0.090100
      4 O1           1.3740     0.0010     2.3840 oh         1 W29      -0.511100
      5 C03          3.4380    -0.0000     1.2090 ca         1 W29      -0.143000
      6 C06          2.0520    -0.0060    -1.2020 ca         1 W29      -0.149000
      7 C04          3.4310    -0.0070    -1.2070 ca         1 W29      -0.111000
      8 C01          4.1340    -0.0010    -0.0000 ca         1 W29       0.000000
      9 C02          5.6120    -0.0020    -0.0040 cc         1 W29       0.007900
     10 S            6.6310    -1.1180     0.8960 ss         1 W29      -0.147800
     11 C07          8.0830    -0.3490     0.2690 cc         1 W29      -0.071100
     12 C09          7.7470     0.6560    -0.5430 cd         1 W29      -0.150000
     13 C08          6.3890     0.8510    -0.7030 cd         1 W29      -0.096300
     14 C11          5.8210     1.9320    -1.5840 c3         1 W29      -0.025100
     15 C12          5.4160     3.1310    -0.7250 c3         1 W29      -0.088100
     16 HO2         -0.3140     0.8750    -0.1590 ho         1 W29       0.423000
     17 HO1          1.4100    -0.8590     2.7690 ho         1 W29       0.424000
     18 H03          3.9790     0.0020     2.1470 ha         1 W29       0.149000
     19 H06          1.5080    -0.0110    -2.1390 ha         1 W29       0.144000
     20 H04          3.9690    -0.0100    -2.1470 ha         1 W29       0.144000
     21 H07          9.0970    -0.6450     0.5080 h4         1 W29       0.171000
     22 H09          8.4850     1.2700    -1.0440 ha         1 W29       0.149000
     23 H11          6.5690     2.2410    -2.3050 hc         1 W29       0.049200
     24 H11A         4.9520     1.5530    -2.1070 hc         1 W29       0.049200
     25 H12          5.4460     2.8520     0.3220 hc         1 W29       0.037700
     26 H12A         4.4120     3.4410    -0.9880 hc         1 W29       0.037700
     27 H12B         6.1050     3.9490    -0.8990 hc         1 W29       0.037700
@<TRIPOS>BOND
     1     2     1 1
     2     1    16 1
     3     3     2 ar
     4     2     6 ar
     5     4     3 1
     6     5     3 ar
     7     4    17 1
     8     5     8 ar
     9     5    18 1
    10     7     6 ar
    11     6    19 1
    12     8     7 ar
    13     7    20 1
    14     9     8 1
    15    10     9 1
    16     9    13 2
    17    10    11 1
    18    11    12 2
    19    11    21 1
    20    12    13 1
    21    12    22 1
    22    13    14 1
    23    14    15 1
    24    14    23 1
    25    14    24 1
    26    15    25 1
    27    15    26 1
    28    15    27 1
@<TRIPOS>SUBSTRUCTURE
     1 W29         1 TEMP              0 ****  ****    0 ROOT
