@<TRIPOS>MOLECULE
W2C
   52    54     1     0     0
SMALL
bcc


@<TRIPOS>ATOM
      1 C27         11.9450    -0.8520    -1.4410 cg         1 W2C       0.229800
      2 C9           0.0000     0.0000     0.0000 c2         1 W2C       0.397200
      3 C23          9.7210    -0.3640    -2.3480 ca         1 W2C      -0.065500
      4 C25          9.9210    -1.5090    -0.2260 ca         1 W2C      -0.065500
      5 C22          8.3500    -0.4190    -2.2480 ca         1 W2C      -0.103000
      6 C26          8.5490    -1.5630    -0.1280 ca         1 W2C      -0.103000
      7 C2           5.6790    -1.6770     0.0770 ca         1 W2C      -0.087000
      8 C4           5.4810    -0.5360    -2.0380 ca         1 W2C      -0.087000
      9 C1           4.3040    -1.7290     0.1720 ca         1 W2C      -0.097000
     10 C5           4.1060    -0.5940    -1.9330 ca         1 W2C      -0.097000
     11 C24         10.5180    -0.9080    -1.3380 ca         1 W2C       0.025000
     12 C21          7.7560    -1.0200    -1.1380 cp         1 W2C      -0.010000
     13 C3           6.2770    -1.0790    -1.0310 cp         1 W2C      -0.039000
     14 C6           3.5180    -1.1890    -0.8320 ca         1 W2C      -0.099300
     15 C12          2.1250     1.1620     2.0500 c          1 W2C       0.570100
     16 C17          2.5550     2.1960     6.1750 c3         1 W2C      -0.043400
     17 C15          1.4830     0.7870     4.4160 c3         1 W2C      -0.032400
     18 C18          3.6680     2.5290     5.1790 c3         1 W2C       0.141800
     19 C14          2.6280     1.1610     3.4710 c3         1 W2C       0.048500
     20 C16          1.9930     0.8070     5.8600 c3         1 W2C       0.191100
     21 C7           2.0160    -1.2490    -0.7230 c3         1 W2C       0.021900
     22 C8           1.5060     0.0000     0.0000 c3         1 W2C      -0.082600
     23 N28         13.0780    -0.8270    -1.5260 n1         1 W2C      -0.377800
     24 N10         -0.6400    -0.0000     1.1090 n2         1 W2C      -0.638100
     25 N19          3.1290     2.4980     3.8130 n7         1 W2C      -0.533200
     26 N11          1.9950     0.0000     1.3800 ns         1 W2C      -0.225900
     27 O13          1.8350     2.2090     1.5100 o          1 W2C      -0.599100
     28 O20          3.0230    -0.1710     6.0160 oh         1 W2C      -0.594800
     29 H9          -0.5420     0.0000    -0.9380 h4         1 W2C      -0.009200
     30 H8           1.8670     0.8850    -0.5110 h1         1 W2C       0.060700
     31 H10         -0.1400    -0.0010     1.9760 hn         1 W2C       0.322400
     32 H22          7.7330     0.0030    -3.0310 ha         1 W2C       0.117500
     33 H25         10.5370    -1.9310     0.5590 ha         1 W2C       0.114000
     34 H26          8.0860    -2.0280     0.7340 ha         1 W2C       0.117500
     35 H2           6.2930    -2.1000     0.8630 ha         1 W2C       0.114500
     36 H1           3.8370    -2.1930     1.0320 ha         1 W2C       0.109500
     37 H4           5.9390    -0.0690    -2.9020 ha         1 W2C       0.114500
     38 H5           3.4850    -0.1720    -2.7140 ha         1 W2C       0.109500
     39 H71C         1.7390    -1.9150     0.0850 hc         1 W2C       0.033700
     40 H72C         1.6010    -1.6170    -1.6530 hc         1 W2C       0.033700
     41 H14          3.4290     0.4390     3.5740 h1         1 W2C       0.023700
     42 H11          2.6010    -0.7690     1.5910 hn         1 W2C       0.186500
     43 H171         1.8300     3.0010     6.1720 hc         1 W2C       0.026700
     44 H172         2.9860     2.1080     7.1650 hc         1 W2C       0.026700
     45 H181         3.9810     3.5550     5.3330 h1         1 W2C       0.014200
     46 H182         4.5080     1.8690     5.3580 h1         1 W2C       0.014200
     47 H16          1.1740     0.5880     6.5350 h1         1 W2C       0.001700
     48 H151         0.6870     1.5180     4.3450 hc         1 W2C       0.032200
     49 H152         1.1130    -0.2040     4.1810 hc         1 W2C       0.032200
     50 H19          3.8740     2.6300     3.1570 hn         1 W2C       0.251800
     51 H20          2.7860    -0.7720     6.7030 ho         1 W2C       0.391000
     52 H23         10.1830     0.1020    -3.2110 ha         1 W2C       0.114000
@<TRIPOS>BOND
     1     1    11 1   
     2     1    23 3   
     3     2    22 1   
     4     2    24 2   
     5     2    29 1   
     6     3     5 ar  
     7     3    11 ar  
     8     3    52 1   
     9     4     6 ar  
    10     4    11 ar  
    11     4    33 1   
    12     5    12 ar  
    13     5    32 1   
    14     6    12 ar  
    15     6    34 1   
    16     7     9 ar  
    17     7    13 ar  
    18     7    35 1   
    19     8    10 ar  
    20     8    13 ar  
    21     8    37 1   
    22     9    14 ar  
    23     9    36 1   
    24    10    14 ar  
    25    10    38 1   
    26    12    13 1   
    27    14    21 1   
    28    15    19 1   
    29    15    26 1   
    30    15    27 2   
    31    16    18 1   
    32    16    20 1   
    33    16    43 1   
    34    16    44 1   
    35    17    19 1   
    36    17    20 1   
    37    17    48 1   
    38    17    49 1   
    39    18    25 1   
    40    18    45 1   
    41    18    46 1   
    42    19    25 1   
    43    19    41 1   
    44    20    28 1   
    45    20    47 1   
    46    21    22 1   
    47    21    39 1   
    48    21    40 1   
    49    22    26 1   
    50    22    30 1   
    51    24    31 1   
    52    25    50 1   
    53    26    42 1   
    54    28    51 1   
@<TRIPOS>SUBSTRUCTURE
     1 W2C         1 TEMP              0 ****  ****    0 ROOT
