@<TRIPOS>MOLECULE
molecule
   52    54     1     0     0
SMALL
bcc


@<TRIPOS>ATOM
      1 C27         11.9450    -0.8520    -1.4410 cg         1 W2C       0.238800
      2 C9           0.0000     0.0000     0.0000 c2         1 W2C       0.416200
      3 C23          9.7210    -0.3640    -2.3480 ca         1 W2C      -0.086500
      4 C25          9.9210    -1.5090    -0.2260 ca         1 W2C      -0.086500
      5 C22          8.3500    -0.4190    -2.2480 ca         1 W2C      -0.127500
      6 C26          8.5490    -1.5630    -0.1280 ca         1 W2C      -0.127500
      7 C2           5.6790    -1.6770     0.0770 ca         1 W2C      -0.110500
      8 C4           5.4810    -0.5360    -2.0380 ca         1 W2C      -0.110500
      9 C1           4.3040    -1.7290     0.1720 ca         1 W2C      -0.121000
     10 C5           4.1060    -0.5940    -1.9330 ca         1 W2C      -0.121000
     11 C24         10.5180    -0.9080    -1.3380 ca         1 W2C      -0.023000
     12 C21          7.7560    -1.0200    -1.1380 cp         1 W2C      -0.008000
     13 C3           6.2770    -1.0790    -1.0310 cp         1 W2C      -0.047000
     14 C6           3.5180    -1.1890    -0.8320 ca         1 W2C      -0.062300
     15 C12          2.1250     1.1620     2.0500 c          1 W2C       0.670100
     16 C17          2.5550     2.1960     6.1750 c3         1 W2C      -0.089400
     17 C15          1.4830     0.7870     4.4160 c3         1 W2C      -0.072400
     18 C18          3.6680     2.5290     5.1790 c3         1 W2C       0.149800
     19 C14          2.6280     1.1610     3.4710 c3         1 W2C       0.084500
     20 C16          1.9930     0.8070     5.8600 c3         1 W2C       0.140100
     21 C7           2.0160    -1.2490    -0.7230 c3         1 W2C      -0.130100
     22 C8           1.5060     0.0000     0.0000 c3         1 W2C       0.104400
     23 N28         13.0770    -0.8180    -1.5390 n1         1 W2C      -0.362800
     24 N10         -0.6400    -0.0000     1.1090 n2         1 W2C      -0.781100
     25 N19          3.1290     2.4980     3.8130 n7         1 W2C      -0.754200
     26 N11          1.9950     0.0000     1.3800 ns         1 W2C      -0.581900
     27 O13          1.8350     2.2090     1.5100 o          1 W2C      -0.585100
     28 O20          3.0230    -0.1710     6.0160 oh         1 W2C      -0.613800
     29 H9          -0.5420     0.0000    -0.9380 h4         1 W2C      -0.033200
     30 H8           1.8670     0.8850    -0.5110 h1         1 W2C       0.093700
     31 H10         -1.6410    -0.0000     1.1090 hn         1 W2C       0.397400
     32 H22          7.7320     0.0030    -3.0310 ha         1 W2C       0.141500
     33 H25         10.5370    -1.9310     0.5590 ha         1 W2C       0.143000
     34 H26          8.0860    -2.0280     0.7340 ha         1 W2C       0.141500
     35 H2           6.2930    -2.1000     0.8630 ha         1 W2C       0.135000
     36 H1           3.8370    -2.1930     1.0320 ha         1 W2C       0.132000
     37 H4           5.9390    -0.0690    -2.9020 ha         1 W2C       0.135000
     38 H5           3.4850    -0.1720    -2.7140 ha         1 W2C       0.132000
     39 H71C         1.5980    -1.9450    -1.4400 hc         1 W2C       0.086200
     40 H72C         1.7050    -1.4870     0.2870 hc         1 W2C       0.086200
     41 H14          3.4290     0.4390     3.5740 h1         1 W2C       0.042700
     42 H11          2.2100    -0.8660     1.8340 hn         1 W2C       0.315500
     43 H171         2.9860     2.1080     7.1650 hc         1 W2C       0.054700
     44 H172         1.8300     3.0010     6.1720 hc         1 W2C       0.054700
     45 H181         4.5080     1.8690     5.3580 h1         1 W2C       0.041700
     46 H182         3.9810     3.5550     5.3330 h1         1 W2C       0.041700
     47 H16          1.1740     0.5880     6.5350 h1         1 W2C       0.034700
     48 H151         1.1130    -0.2040     4.1810 hc         1 W2C       0.063700
     49 H152         0.6870     1.5180     4.3450 hc         1 W2C       0.063700
     50 H19          3.8740     2.6300     3.1570 hn         1 W2C       0.349800
     51 H20          2.7860    -0.7720     6.7030 ho         1 W2C       0.401000
     52 H23         10.1830     0.1020    -3.2110 ha         1 W2C       0.143000
@<TRIPOS>BOND
     1     1    11 1
     2     1    23 3
     3     2    22 1
     4     2    24 2
     5     2    29 1
     6     3     5 ar
     7     3    11 ar
     8     4     6 ar
     9     4    11 ar
    10     5    12 ar
    11     6    12 ar
    12     7     9 ar
    13     7    13 ar
    14     8    10 ar
    15     8    13 ar
    16     9    14 ar
    17    10    14 ar
    18    12    13 1
    19    14    21 1
    20    15    19 1
    21    15    26 1
    22    15    27 2
    23    16    18 1
    24    16    20 1
    25    17    19 1
    26    17    20 1
    27    18    25 1
    28    19    25 1
    29    20    28 1
    30    21    22 1
    31    22    26 1
    32    22    30 1
    33    24    31 1
    34     3    52 1
    35     5    32 1
    36     4    33 1
    37     6    34 1
    38     7    35 1
    39     9    36 1
    40     8    37 1
    41    10    38 1
    42    21    39 1
    43    21    40 1
    44    19    41 1
    45    26    42 1
    46    16    43 1
    47    16    44 1
    48    18    45 1
    49    18    46 1
    50    20    47 1
    51    17    48 1
    52    17    49 1
    53    25    50 1
    54    28    51 1
@<TRIPOS>SUBSTRUCTURE
     1 W2C         1 TEMP              0 ****  ****    0 ROOT
