@<TRIPOS>MOLECULE
molecule
   43    47     1     0     0
SMALL
bcc


@<TRIPOS>ATOM
      1 C21          0.0000     0.0000     0.0000 ca         1 W2D      -0.095000
      2 C22          1.3850     0.0000     0.0000 ca         1 W2D       0.054100
      3 O23          2.2910     0.0000     1.0230 os         1 W2D      -0.319900
      4 C24          3.5370     0.4110     0.4320 c3         1 W2D       0.332200
      5 O25          3.4170    -0.0010    -0.9420 os         1 W2D      -0.320900
      6 C26          2.0790     0.0000    -1.2080 ca         1 W2D       0.060100
      7 C27          1.3790    -0.0000    -2.4030 ca         1 W2D      -0.117000
      8 C28         -0.0030     0.0000    -2.3960 ca         1 W2D      -0.111000
      9 C20         -0.6920    -0.0010    -1.1970 ca         1 W2D      -0.086300
     10 C19         -2.1980    -0.0010    -1.1950 c3         1 W2D      -0.076400
     11 C9          -2.7010     1.4200    -1.1940 cc         1 W2D       0.638800
     12 N8          -1.8310     2.3840    -1.1960 nd         1 W2D      -0.716000
     13 C7          -2.2020     3.6870    -1.1950 ca         1 W2D       0.430600
     14 C6          -1.2590     4.7190    -1.1960 ca         1 W2D      -0.072300
     15 C5          -1.6780     6.0190    -1.1960 ca         1 W2D      -0.315500
     16 S2          -0.4850     7.3150    -1.1980 sy         1 W2D       1.228200
     17 O3          -1.1310     8.4570    -0.6530 o          1 W2D      -0.515300
     18 O1           0.7070     6.7640    -0.6560 o          1 W2D      -0.515300
     19 N4          -0.1550     7.6750    -2.7800 nz         1 W2D      -0.807500
     20 C18         -3.0310     6.3350    -1.1940 ca         1 W2D      -0.078000
     21 C17         -3.9770     5.3480    -1.1920 ca         1 W2D      -0.061000
     22 C16         -3.5790     4.0130    -1.1930 ca         1 W2D      -0.065300
     23 C15         -4.5420     2.9080    -1.1930 cc         1 W2D       0.010700
     24 N14         -5.8560     2.8300    -1.1910 nd         1 W2D      -0.423300
     25 N10         -4.0450     1.6320    -1.1980 na         1 W2D      -0.014800
     26 N11         -5.1590     0.7830    -1.2020 nc         1 W2D      -0.553100
     27 C12         -6.2290     1.5490    -1.1900 cd         1 W2D       0.809200
     28 N13         -7.5460     1.0930    -1.1880 nv         1 W2D      -0.995800
     29 H21         -0.5410    -0.0440     0.9380 ha         1 W2D       0.147000
     30 H241         3.6310     1.4890     0.4860 h2         1 W2D       0.075700
     31 H242         4.3580    -0.1150     0.9040 h2         1 W2D       0.075700
     32 H27          1.9150    -0.0290    -3.3440 ha         1 W2D       0.148000
     33 H28         -0.5480    -0.0200    -3.3320 ha         1 W2D       0.137000
     34 H191        -2.5580    -0.5120    -0.3100 hc         1 W2D       0.096700
     35 H192        -2.5600    -0.5120    -2.0790 hc         1 W2D       0.096700
     36 H6          -0.2050     4.4900    -1.0960 ha         1 W2D       0.178000
     37 H18         -3.3390     7.3730    -1.1930 ha         1 W2D       0.159000
     38 H41N         0.2230     6.8670    -3.2340 hn         1 W2D       0.493133
     39 H42N        -0.9980     7.9540    -3.2410 hn         1 W2D       0.493133
     40 H17         -5.0300     5.6030    -1.1910 ha         1 W2D       0.185000
     41 H131        -8.0300     0.9560    -2.0530 hn         1 W2D       0.460800
     42 H132        -8.0120     0.9130    -0.3210 hn         1 W2D       0.460800
     43 H43          0.5120     8.4200    -2.8200 hn         1 W2D       0.493133
@<TRIPOS>BOND
     1     1     2 ar
     2     1     9 ar
     3     2     3 1
     4     2     6 ar
     5     3     4 1
     6     4     5 1
     7     5     6 1
     8     6     7 ar
     9     7     8 ar
    10     8     9 ar
    11     9    10 1
    12    10    11 1
    13    11    12 2
    14    11    25 1
    15    12    13 1
    16    13    14 ar
    17    13    22 ar
    18    14    15 ar
    19    15    16 1
    20    15    20 ar
    21    16    17 2
    22    16    18 2
    23    16    19 1
    24    20    21 ar
    25    21    22 ar
    26    22    23 1
    27    23    24 2
    28    23    25 1
    29    24    27 1
    30    25    26 1
    31    26    27 2
    32    27    28 1
    33     1    29 1
    34     4    30 1
    35     4    31 1
    36     7    32 1
    37     8    33 1
    38    10    34 1
    39    10    35 1
    40    14    36 1
    41    20    37 1
    42    19    38 1
    43    19    39 1
    44    21    40 1
    45    28    41 1
    46    28    42 1
    47    43    19 1
@<TRIPOS>SUBSTRUCTURE
     1 W2D         1 TEMP              0 ****  ****    0 ROOT
