@<TRIPOS>MOLECULE
W2D
   43    47     1     0     0
SMALL
bcc


@<TRIPOS>ATOM
      1 C21          0.0000     0.0000     0.0000 ca         1 W2D      -0.071000
      2 C22          1.3850     0.0000     0.0000 ca         1 W2D       0.062100
      3 O23          2.2910     0.0000     1.0230 os         1 W2D      -0.308900
      4 C24          3.5370     0.4110     0.4320 c3         1 W2D       0.434200
      5 O25          3.4170    -0.0010    -0.9420 os         1 W2D      -0.309900
      6 C26          2.0790     0.0000    -1.2080 ca         1 W2D       0.066100
      7 C27          1.3790    -0.0000    -2.4030 ca         1 W2D      -0.090000
      8 C28         -0.0030     0.0000    -2.3960 ca         1 W2D      -0.088000
      9 C20         -0.6920    -0.0010    -1.1970 ca         1 W2D      -0.096300
     10 C19         -2.1980    -0.0010    -1.1950 c3         1 W2D      -0.010400
     11 C9          -2.7010     1.4200    -1.1940 cc         1 W2D       0.415800
     12 N8          -1.8310     2.3840    -1.1960 nd         1 W2D      -0.594000
     13 C7          -2.2020     3.6870    -1.1950 ca         1 W2D       0.364600
     14 C6          -1.2590     4.7190    -1.1960 ca         1 W2D      -0.029300
     15 C5          -1.6780     6.0190    -1.1960 ca         1 W2D      -0.204500
     16 S2          -0.4850     7.3150    -1.1980 sy         1 W2D       0.935200
     17 O3          -1.1310     8.4570    -0.6530 o          1 W2D      -0.493800
     18 O1           0.7070     6.7640    -0.6560 o          1 W2D      -0.493800
     19 N4          -0.1550     7.6750    -2.7800 nz         1 W2D      -0.131500
     20 C18         -3.0310     6.3350    -1.1940 ca         1 W2D      -0.037000
     21 C17         -3.9770     5.3480    -1.1920 ca         1 W2D      -0.037000
     22 C16         -3.5790     4.0130    -1.1930 ca         1 W2D      -0.053300
     23 C15         -4.5420     2.9080    -1.1930 cc         1 W2D      -0.180300
     24 N14         -5.8560     2.8300    -1.1910 nd         1 W2D      -0.342300
     25 N10         -4.0450     1.6320    -1.1980 na         1 W2D       0.453200
     26 N11         -5.1590     0.7830    -1.2020 nc         1 W2D      -0.696100
     27 C12         -6.2290     1.5490    -1.1900 cd         1 W2D       0.669200
     28 N13         -7.5460     1.0930    -1.1880 nv         1 W2D      -0.556800
     29 H21         -0.5410    -0.0440     0.9380 ha         1 W2D       0.116000
     30 H241         3.6310     1.4890     0.4860 h2         1 W2D       0.016700
     31 H242         4.3580    -0.1150     0.9040 h2         1 W2D       0.016700
     32 H27          1.9150    -0.0290    -3.3440 ha         1 W2D       0.115000
     33 H28         -0.5480    -0.0200    -3.3320 ha         1 W2D       0.107000
     34 H191        -2.5580    -0.5120    -0.3100 hc         1 W2D       0.053700
     35 H192        -2.5600    -0.5120    -2.0790 hc         1 W2D       0.053700
     36 H6          -0.2050     4.4900    -1.0960 ha         1 W2D       0.144000
     37 H18         -3.3390     7.3730    -1.1930 ha         1 W2D       0.130000
     38 H41N         0.2230     6.8670    -3.2340 hn         1 W2D       0.314133
     39 H42N        -0.9980     7.9540    -3.2410 hn         1 W2D       0.314133
     40 H17         -5.0300     5.6030    -1.1910 ha         1 W2D       0.148000
     41 H131        -8.0300     0.9560    -2.0530 hn         1 W2D       0.290800
     42 H132        -8.0120     0.9130    -0.3210 hn         1 W2D       0.290800
     43 H43          0.5120     8.4200    -2.8200 hn         1 W2D       0.314133
@<TRIPOS>BOND
     1     1     2 ar  
     2     1     9 ar  
     3     1    29 1   
     4     2     3 1   
     5     2     6 ar  
     6     3     4 1   
     7     4     5 1   
     8     4    30 1   
     9     4    31 1   
    10     5     6 1   
    11     6     7 ar  
    12     7     8 ar  
    13     7    32 1   
    14     8     9 ar  
    15     8    33 1   
    16     9    10 1   
    17    10    11 1   
    18    10    34 1   
    19    10    35 1   
    20    11    12 2   
    21    11    25 1   
    22    12    13 1   
    23    13    14 ar  
    24    13    22 ar  
    25    14    15 ar  
    26    14    36 1   
    27    15    16 1   
    28    15    20 ar  
    29    16    17 2   
    30    16    18 2   
    31    16    19 1   
    32    19    38 1   
    33    19    39 1   
    34    19    43 1   
    35    20    21 ar  
    36    20    37 1   
    37    21    22 ar  
    38    21    40 1   
    39    22    23 1   
    40    23    24 2   
    41    23    25 1   
    42    24    27 1   
    43    25    26 1   
    44    26    27 2   
    45    27    28 1   
    46    28    41 1   
    47    28    42 1   
@<TRIPOS>SUBSTRUCTURE
     1 W2D         1 TEMP              0 ****  ****    0 ROOT
