@<TRIPOS>MOLECULE
W2E
   33    35     1     0     0
SMALL
bcc


@<TRIPOS>ATOM
      1 CAA          0.0000     0.0000     0.0000 c3         1 W2E       0.271700
      2 OAB          1.4530     0.0000     0.0000 os         1 W2E      -0.416900
      3 CAC          2.0630     0.0000     1.2000 c          1 W2E       0.715700
      4 OAD          1.4010    -0.0000     2.2190 o          1 W2E      -0.583000
      5 CAE          3.5390    -0.0010     1.2790 ca         1 W2E      -0.132600
      6 CAJ          4.1730    -0.0010     2.5240 ca         1 W2E      -0.046500
      7 CAI          5.5480    -0.0020     2.5960 ca         1 W2E      -0.090000
      8 CAF          4.3000    -0.0070     0.1070 ca         1 W2E      -0.046500
      9 CAG          5.6760    -0.0070     0.1810 ca         1 W2E      -0.090000
     10 CAH          6.3090    -0.0010     1.4250 ca         1 W2E      -0.125900
     11 CAK          7.7860    -0.0010     1.5030 cc         1 W2E       0.347500
     12 CAT          9.6870     0.0040     2.8310 ca         1 W2E       0.150400
     13 CAS         10.2830     0.0090     4.0960 ca         1 W2E      -0.095000
     14 CAR         11.6550     0.0090     4.2020 ca         1 W2E      -0.064000
     15 CAQ         12.4580     0.0040     3.0680 ca         1 W2E      -0.125000
     16 CAP         11.8940    -0.0000     1.8110 ca         1 W2E      -0.016000
     17 CAO         10.5070    -0.0010     1.6790 ca         1 W2E      -0.213600
     18 CAM          9.8530    -0.0020     0.3620 c          1 W2E       0.620100
     19 N1           8.5000    -0.0010     0.3360 ns         1 W2E      -0.017400
     20 OAN         10.5050    -0.0060    -0.6660 o          1 W2E      -0.663500
     21 N            8.3470     0.0040     2.6840 nd         1 W2E      -0.527100
     22 HAA1        -0.3610     0.0000    -1.0210 h1         1 W2E       0.002367
     23 HAA2        -0.3610    -0.8850     0.5100 h1         1 W2E       0.002367
     24 HAA3        -0.3610     0.8840     0.5110 h1         1 W2E       0.002367
     25 HAJ          3.5830    -0.0010     3.4320 ha         1 W2E       0.126000
     26 HAF          3.8090    -0.0110    -0.8580 ha         1 W2E       0.126000
     27 HAI          6.0390     0.0010     3.5610 ha         1 W2E       0.121500
     28 HAG          6.2670    -0.0090    -0.7270 ha         1 W2E       0.121500
     29 H1           8.0190    -0.0000    -0.5420 hn         1 W2E       0.190500
     30 HAS          9.6680     0.0130     4.9870 ha         1 W2E       0.119000
     31 HAR         12.1150     0.0120     5.1830 ha         1 W2E       0.103000
     32 HAQ         13.5360     0.0030     3.1730 ha         1 W2E       0.108000
     33 HAP         12.5250    -0.0040     0.9300 ha         1 W2E       0.125000
@<TRIPOS>BOND
     1     1     2 1   
     2     1    22 1   
     3     1    23 1   
     4     1    24 1   
     5     2     3 1   
     6     3     4 2   
     7     3     5 1   
     8     5     6 ar  
     9     5     8 ar  
    10     6     7 ar  
    11     6    25 1   
    12     7    10 ar  
    13     7    27 1   
    14     8     9 ar  
    15     8    26 1   
    16     9    10 ar  
    17     9    28 1   
    18    10    11 1   
    19    11    19 1   
    20    11    21 2   
    21    12    13 ar  
    22    12    17 ar  
    23    12    21 1   
    24    13    14 ar  
    25    13    30 1   
    26    14    15 ar  
    27    14    31 1   
    28    15    16 ar  
    29    15    32 1   
    30    16    17 ar  
    31    16    33 1   
    32    17    18 1   
    33    18    19 1   
    34    18    20 2   
    35    19    29 1   
@<TRIPOS>SUBSTRUCTURE
     1 W2E         1 TEMP              0 ****  ****    0 ROOT
