@<TRIPOS>MOLECULE
molecule
   52    55     1     0     0
SMALL
bcc


@<TRIPOS>ATOM
      1 O1           0.0000     0.0000     0.0000 o          1 W2K      -0.579100
      2 C5           1.2160     0.0000     0.0000 c          1 W2K       0.685700
      3 C4           1.9530     0.0000     1.2780 ca         1 W2K      -0.174600
      4 C3           1.2550    -0.0010     2.4890 ca         1 W2K      -0.059500
      5 C2           1.9460    -0.0010     3.6790 ca         1 W2K      -0.181500
      6 C16          3.3510    -0.0070     1.2810 ca         1 W2K      -0.059500
      7 C17          4.0360    -0.0080     2.4740 ca         1 W2K      -0.181500
      8 C1           3.3380    -0.0020     3.6780 ca         1 W2K       0.131600
      9 N            4.0320    -0.0030     4.8830 nh         1 W2K      -0.598000
     10 C18          5.4840    -0.0040     4.6530 c3         1 W2K       0.164800
     11 C19          6.2100    -0.0840     5.9980 c3         1 W2K       0.160300
     12 N4           5.8120     1.0560     6.8360 n3         1 W2K      -0.734600
     13 C21          6.5470     1.0550     8.1090 c3         1 W2K       0.153100
     14 C20          4.3610     1.0560     7.0660 c3         1 W2K       0.160300
     15 C            3.6350     1.1370     5.7210 c3         1 W2K       0.164800
     16 N1           1.8900    -0.0050    -1.1670 ns         1 W2K      -0.483100
     17 C6           1.1950    -0.1110    -2.3770 cc         1 W2K      -0.052600
     18 C10          0.2340     0.8620    -2.7360 c          1 W2K       0.681700
     19 O            0.0100     1.8000    -1.9880 o          1 W2K      -0.619500
     20 N2          -0.4330     0.7590    -3.9010 ns         1 W2K      -0.404100
     21 C9          -0.2000    -0.2750    -4.7480 cc         1 W2K       0.017600
     22 C8           0.7190    -1.2360    -4.4380 cd         1 W2K      -0.147200
     23 C7           1.4400    -1.1520    -3.2270 cd         1 W2K      -0.058000
     24 C11          0.9630    -2.3610    -5.3730 ca         1 W2K      -0.002800
     25 C15          1.5100    -2.1350    -6.6410 ca         1 W2K      -0.246300
     26 C14          1.7210    -3.2100    -7.4790 ca         1 W2K       0.420200
     27 N3           1.4150    -4.4360    -7.0990 nb         1 W2K      -0.691000
     28 C13          0.8970    -4.6920    -5.9120 ca         1 W2K       0.420200
     29 C12          0.6590    -3.6760    -5.0100 ca         1 W2K      -0.246300
     30 H3           0.1720     0.0000     2.4910 ha         1 W2K       0.140500
     31 H16          3.8950    -0.0120     0.3440 ha         1 W2K       0.140500
     32 H2           1.4050     0.0010     4.6180 ha         1 W2K       0.140500
     33 H17          5.1190    -0.0110     2.4760 ha         1 W2K       0.140500
     34 H181         5.7530    -0.8610     4.0470 h1         1 W2K       0.051700
     35 H182         5.7690     0.9090     4.1440 h1         1 W2K       0.051700
     36 HC1          2.5650     1.1060     5.8870 h1         1 W2K       0.051700
     37 HC2          3.9020     2.0610     5.2220 h1         1 W2K       0.051700
     38 H191         5.9430    -1.0080     6.4970 h1         1 W2K       0.043950
     39 H192         7.2800    -0.0530     5.8320 h1         1 W2K       0.043950
     40 H211         6.3120     0.1540     8.6610 h1         1 W2K       0.033700
     41 H212         7.6120     1.0900     7.9110 h1         1 W2K       0.033700
     42 H213         6.2600     1.9220     8.6920 h1         1 W2K       0.033700
     43 H201         4.0920     1.9130     7.6720 h1         1 W2K       0.043950
     44 H202         4.0770     0.1430     7.5740 h1         1 W2K       0.043950
     45 H7           2.1720    -1.9090    -2.9700 ha         1 W2K       0.147000
     46 H9          -0.7500    -0.3400    -5.6790 h4         1 W2K       0.160000
     47 H15          1.7630    -1.1310    -6.9590 ha         1 W2K       0.143500
     48 H12          0.2340    -3.8940    -4.0380 ha         1 W2K       0.143500
     49 H14          2.1440    -3.0450    -8.4630 h4         1 W2K       0.025100
     50 H13          0.6630    -5.7140    -5.6400 h4         1 W2K       0.025100
     51 HN2         -1.1110     1.4540    -4.1450 hn         1 W2K       0.342500
     52 HN1          2.8870     0.0870    -1.1690 hn         1 W2K       0.325500
@<TRIPOS>BOND
     1     1     2 2
     2     2     3 1
     3     2    16 1
     4     3     4 ar
     5     3     6 ar
     6     4     5 ar
     7     5     8 ar
     8     6     7 ar
     9     7     8 ar
    10     8     9 1
    11     9    10 1
    12     9    15 1
    13    10    11 1
    14    11    12 1
    15    12    13 1
    16    12    14 1
    17    14    15 1
    18    16    17 1
    19    17    18 1
    20    17    23 2
    21    18    19 2
    22    18    20 1
    23    20    21 1
    24    21    22 2
    25    22    23 1
    26    22    24 1
    27    24    25 ar
    28    24    29 ar
    29    25    26 ar
    30    26    27 ar
    31    27    28 ar
    32    28    29 ar
    33     4    30 1
    34     6    31 1
    35     5    32 1
    36     7    33 1
    37    10    34 1
    38    10    35 1
    39    15    36 1
    40    15    37 1
    41    11    38 1
    42    11    39 1
    43    13    40 1
    44    13    41 1
    45    13    42 1
    46    14    43 1
    47    14    44 1
    48    23    45 1
    49    21    46 1
    50    25    47 1
    51    29    48 1
    52    26    49 1
    53    28    50 1
    54    20    51 1
    55    16    52 1
@<TRIPOS>SUBSTRUCTURE
     1 W2K         1 TEMP              0 ****  ****    0 ROOT
