@<TRIPOS>MOLECULE
W2P
   67    70     1     0     0
SMALL
bcc


@<TRIPOS>ATOM
      1 C1           0.0000     0.0000     0.0000 ca         1 W2P      -0.019400
      2 C2           1.3890     0.0000     0.0000 ca         1 W2P      -0.104000
      3 C3           2.0780     0.0000     1.1980 ca         1 W2P      -0.052600
      4 C4           1.3840    -0.0010     2.4000 ca         1 W2P       0.126100
      5 C5          -0.0030    -0.0020     2.3990 ca         1 W2P      -0.170000
      6 C6          -0.6950    -0.0020     1.2040 ca         1 W2P      -0.062000
      7 O7           2.0630    -0.0010     3.5780 os         1 W2P      -0.210200
      8 C8           1.3480    -0.1150     4.7270 ca         1 W2P       0.101100
      9 Cl9          3.8150     0.0000     1.1980 cl         1 W2P      -0.003400
     10 C10          0.8400    -1.3480     5.1090 ca         1 W2P      -0.090000
     11 C11          0.1130    -1.4610     6.2790 ca         1 W2P      -0.092000
     12 C12         -0.1100    -0.3480     7.0670 ca         1 W2P      -0.049000
     13 C13          0.3950     0.8840     6.6870 ca         1 W2P      -0.198300
     14 C14          1.1280     1.0000     5.5230 ca         1 W2P      -0.057000
     15 C15          0.1570     2.0940     7.5520 c3         1 W2P       0.641200
     16 F16         -1.0240     2.7290     7.1490 f          1 W2P      -0.206967
     17 F17          0.0410     1.6980     8.8880 f          1 W2P      -0.206967
     18 F18          1.2310     2.9810     7.4200 f          1 W2P      -0.206967
     19 N19         -4.3050    -1.9400    -1.4530 nb         1 W2P      -0.617000
     20 C20         -3.5400    -2.0100    -0.3860 ca         1 W2P       0.640900
     21 N21         -2.3790    -1.3840    -0.3050 nb         1 W2P      -0.694000
     22 C22         -1.9200    -0.6450    -1.3110 ca         1 W2P       0.549200
     23 C23         -3.9240    -1.2200    -2.5120 ca         1 W2P       0.440100
     24 C24         -2.6950    -0.5380    -2.4700 ca         1 W2P      -0.507800
     25 N25         -2.5490     0.1160    -3.6710 na         1 W2P       0.420600
     26 C26         -3.6330    -0.1280    -4.4640 cc         1 W2P      -0.241100
     27 C27         -4.5000    -0.9290    -3.8210 cd         1 W2P      -0.270800
     28 C28         -1.4020     0.9480    -4.0440 c3         1 W2P      -0.065700
     29 C29         -0.2400     0.0520    -4.4730 c3         1 W2P       0.022000
     30 N30          0.9070     0.8850    -4.8460 ns         1 W2P      -0.216900
     31 C31          2.0530     0.3080    -5.2590 c          1 W2P       0.573100
     32 C32          3.2320     1.1650    -5.6420 c3         1 W2P      -0.093400
     33 O33          2.1350    -0.9000    -5.3240 o          1 W2P      -0.628100
     34 N34         -0.7000     0.0060    -1.2120 nu         1 W2P      -0.333300
     35 C35          4.3950     0.2680    -6.0720 c3         1 W2P      -0.022400
     36 C36          5.5930     1.1380    -6.4600 c3         1 W2P       0.150800
     37 N37          6.7090     0.2770    -6.8720 n3         1 W2P      -0.542600
     38 C38          6.3870    -0.4460    -8.1100 c3         1 W2P       0.181100
     39 C39          7.9460     1.0560    -7.0250 c3         1 W2P       0.181100
     40 H1           1.9310     0.0010    -0.9380 ha         1 W2P       0.118000
     41 H2          -0.5450    -0.0030     3.3370 ha         1 W2P       0.127000
     42 H3          -1.7780    -0.0020     1.2050 ha         1 W2P       0.140000
     43 H4           1.0150    -2.2210     4.4920 ha         1 W2P       0.124000
     44 H5          -0.2840    -2.4240     6.5780 ha         1 W2P       0.114000
     45 H6          -0.6830    -0.4380     7.9820 ha         1 W2P       0.120000
     46 H7           1.5240     1.9640     5.2260 ha         1 W2P       0.131000
     47 H9          -3.7730     0.2660    -5.4640 h4         1 W2P       0.144000
     48 H10         -5.4470    -1.2900    -4.2020 ha         1 W2P       0.140000
     49 H11         -1.1010     1.5490    -3.1950 h1         1 W2P       0.036700
     50 H12         -1.6790     1.5980    -4.8650 h1         1 W2P       0.036700
     51 H13          0.0380    -0.5980    -3.6520 h1         1 W2P       0.040700
     52 H14         -0.5410    -0.5490    -5.3230 h1         1 W2P       0.040700
     53 H15          0.8290     1.8820    -4.8220 hn         1 W2P       0.174500
     54 H16          2.9550     1.8150    -6.4620 hc         1 W2P       0.026200
     55 H17          3.5330     1.7640    -4.7910 hc         1 W2P       0.026200
     56 H18         -0.3400     0.5130    -1.9950 hn         1 W2P       0.293800
     57 H19          4.0930    -0.3310    -6.9220 hc         1 W2P       0.039200
     58 H20          4.6720    -0.3820    -5.2510 hc         1 W2P       0.039200
     59 H21          5.3160     1.7880    -7.2800 h1         1 W2P       0.005200
     60 H22          5.8940     1.7370    -5.6090 h1         1 W2P       0.005200
     61 H24          5.6870     0.1360    -8.6970 h1         1 W2P       0.001700
     62 H25          5.9440    -1.4040    -7.8640 h1         1 W2P       0.001700
     63 H26          7.2930    -0.6050    -8.6820 h1         1 W2P       0.001700
     64 H27          8.7540     0.3960    -7.3160 h1         1 W2P       0.001700
     65 H28          7.8050     1.8130    -7.7870 h1         1 W2P       0.001700
     66 H29          8.1910     1.5320    -6.0830 h1         1 W2P       0.001700
     67 H8          -3.8750    -2.6010     0.4580 h5         1 W2P      -0.001900
@<TRIPOS>BOND
     1     1     2 ar  
     2     1     6 ar  
     3     1    34 1   
     4     2     3 ar  
     5     2    40 1   
     6     3     4 ar  
     7     3     9 1   
     8     4     5 ar  
     9     4     7 1   
    10     5     6 ar  
    11     5    41 1   
    12     6    42 1   
    13     7     8 1   
    14     8    10 ar  
    15     8    14 ar  
    16    10    11 ar  
    17    10    43 1   
    18    11    12 ar  
    19    11    44 1   
    20    12    13 ar  
    21    12    45 1   
    22    13    14 ar  
    23    13    15 1   
    24    14    46 1   
    25    15    16 1   
    26    15    17 1   
    27    15    18 1   
    28    19    20 ar  
    29    19    23 ar  
    30    20    21 ar  
    31    20    67 1   
    32    21    22 ar  
    33    22    24 ar  
    34    22    34 1   
    35    23    24 ar  
    36    23    27 1   
    37    24    25 1   
    38    25    26 1   
    39    25    28 1   
    40    26    27 2   
    41    26    47 1   
    42    27    48 1   
    43    28    29 1   
    44    28    49 1   
    45    28    50 1   
    46    29    30 1   
    47    29    51 1   
    48    29    52 1   
    49    30    31 1   
    50    30    53 1   
    51    31    32 1   
    52    31    33 2   
    53    32    35 1   
    54    32    54 1   
    55    32    55 1   
    56    34    56 1   
    57    35    36 1   
    58    35    57 1   
    59    35    58 1   
    60    36    37 1   
    61    36    59 1   
    62    36    60 1   
    63    37    38 1   
    64    37    39 1   
    65    38    61 1   
    66    38    62 1   
    67    38    63 1   
    68    39    64 1   
    69    39    65 1   
    70    39    66 1   
@<TRIPOS>SUBSTRUCTURE
     1 W2P         1 TEMP              0 ****  ****    0 ROOT
