@<TRIPOS>MOLECULE
molecule
   73    77     1     0     0
SMALL
bcc


@<TRIPOS>ATOM
      1 C1           0.0000     0.0000     0.0000 ca         1 W2R      -0.101000
      2 C2           1.3810     0.0000     0.0000 ca         1 W2R      -0.170000
      3 C3          -0.2140     3.4990     4.4850 ca         1 W2R      -0.091000
      4 C4          -0.6930     0.0050     1.1960 ca         1 W2R      -0.150000
      5 C5          -0.1190     2.3080     3.7930 ca         1 W2R      -0.185000
      6 C6          -0.9230     9.4670     6.6000 cc         1 W2R      -0.313800
      7 C7           1.3840     0.0020     2.4030 ca         1 W2R      -0.148000
      8 C8          -1.6280     2.4380     6.1160 ca         1 W2R      -0.130000
      9 C9          -0.9350     8.8990     7.8210 cd         1 W2R      -0.080100
     10 C10         -1.0120     7.1500     3.6830 ca         1 W2R       0.691900
     11 C11         -0.9610     8.3830     5.6240 ca         1 W2R       0.481100
     12 C12         -0.9890     7.1920     6.3710 ca         1 W2R      -0.339800
     13 C13          2.0770     0.0000     1.2020 ca         1 W2R       0.085600
     14 C14         -0.9660     3.5670     5.6510 ca         1 W2R       0.130600
     15 C15         -0.0030     0.0070     2.4000 ca         1 W2R       0.116100
     16 C16         -0.7790     1.1800     4.2570 ca         1 W2R       0.127100
     17 C17         -1.5380     1.2480     5.4190 ca         1 W2R       0.019400
     18 C18         -1.0270     5.9790     5.6750 ca         1 W2R       0.728200
     19 C19          4.1480    -0.6460     2.1790 c          1 W2R       0.780100
     20 C20          8.5790    -2.7230     4.2380 c3         1 W2R      -0.084400
     21 C21          7.2460    -3.4290     3.9890 c3         1 W2R      -0.076900
     22 C22          8.3190    -1.2760     4.6630 c3         1 W2R      -0.076900
     23 C23          6.4830    -2.7020     2.8790 c3         1 W2R      -0.094900
     24 C24          7.5560    -0.5480     3.5540 c3         1 W2R      -0.094900
     25 C25          6.2220    -1.2550     3.3040 c3         1 W2R       0.134700
     26 C27          0.4010     5.9910     9.0020 c3         1 W2R       0.106400
     27 C28          1.5030     3.4860    11.5330 c3         1 W2R       0.143400
     28 C29          1.6410     4.4460    10.3500 c3         1 W2R       0.144400
     29 N30         -0.9740     8.3150     4.2910 nb         1 W2R      -0.738000
     30 N31         -1.0340     6.0070     4.3450 nb         1 W2R      -0.797000
     31 N32         -0.9730     7.5410     7.7010 na         1 W2R      -0.059400
     32 N34          3.4770    -0.0050     1.2020 ns         1 W2R      -0.494100
     33 N35          5.4920    -0.5590     2.2420 ns         1 W2R      -0.597900
     34 O36          3.5420    -1.3030     3.0030 o          1 W2R      -0.640100
     35 O37          0.6180     2.4210    11.1820 oh         1 W2R      -0.599800
     36 O38         -0.6860     0.0070     3.5750 os         1 W2R      -0.232200
     37 O39          0.3810     5.0710    10.0940 os         1 W2R      -0.423600
     38 Cl1         -2.3640    -0.1630     5.9990 cl         1 W2R      -0.090400
     39 H1          -0.5410    -0.0010    -0.9390 ha         1 W2R       0.137000
     40 H2           1.9230    -0.0030    -0.9380 ha         1 W2R       0.131000
     41 H3           0.3020     4.3790     4.1220 ha         1 W2R       0.163000
     42 H4          -1.7760     0.0070     1.1940 ha         1 W2R       0.146000
     43 H5           0.4700     2.2540     2.8860 ha         1 W2R       0.152000
     44 H6          -0.8940    10.5290     6.3830 ha         1 W2R       0.169000
     45 H7           1.9250     0.0020     3.3420 ha         1 W2R       0.178000
     46 H8          -2.2170     2.4910     7.0230 ha         1 W2R       0.148000
     47 H9          -0.9180     9.4410     8.7590 h4         1 W2R       0.172000
     48 H10         -1.0190     7.1250     2.6000 h5         1 W2R       0.059100
     49 H11          9.1660    -2.7300     3.3270 hc         1 W2R       0.042200
     50 H12          9.1180    -3.2380     5.0240 hc         1 W2R       0.042200
     51 H13          7.4320    -4.4530     3.6860 hc         1 W2R       0.045700
     52 H14          6.6570    -3.4170     4.8980 hc         1 W2R       0.045700
     53 H15          7.7280    -1.2690     5.5710 hc         1 W2R       0.045700
     54 H16          9.2640    -0.7770     4.8380 hc         1 W2R       0.045700
     55 H17          5.5380    -3.2020     2.7050 hc         1 W2R       0.048200
     56 H18          7.0740    -2.7100     1.9720 hc         1 W2R       0.048200
     57 H19          8.1460    -0.5590     2.6450 hc         1 W2R       0.048200
     58 H20          7.3700     0.4750     3.8580 hc         1 W2R       0.048200
     59 H21          5.6360    -1.2490     4.2150 h1         1 W2R       0.083700
     60 H22         -1.2810     7.1170     9.7270 h1         1 W2R       0.071700
     61 H23         -1.7060     5.8080     8.6150 h1         1 W2R       0.071700
     62 H24          0.6900     5.4720     8.0970 h1         1 W2R       0.039700
     63 H25          1.1140     6.7810     9.2080 h1         1 W2R       0.039700
     64 H26          2.4760     3.0790    11.7830 h1         1 W2R       0.031200
     65 H27          1.1050     4.0190    12.3870 h1         1 W2R       0.031200
     66 H28          1.9550     3.8950     9.4720 h1         1 W2R       0.037200
     67 H29          2.3780     5.2040    10.5840 h1         1 W2R       0.037200
     68 H30         -1.1740     4.7620     7.3510 hn         1 W2R       0.461800
     69 H31          3.9780     0.4580     0.4700 hn         1 W2R       0.318500
     70 H32          5.9900    -0.0140     1.5660 hn         1 W2R       0.306500
     71 H33          0.6180     1.7730    11.8660 ho         1 W2R       0.404000
     72 N33         -1.0570     4.7720     6.3570 nu         1 W2R      -0.776300
     73 C26         -0.9930     6.5970     8.8210 c3         1 W2R       0.044300
@<TRIPOS>BOND
     1    22    20 1
     2    22    24 1
     3    20    21 1
     4    24    25 1
     5    21    23 1
     6    25    23 1
     7    25    33 1
     8    34    19 2
     9    33    19 1
    10    19    32 1
    11    38    17 1
    12    32    13 1
    13     7    13 ar
    14     7    15 ar
    15    36    15 1
    16    36    16 1
    17    13     2 ar
    18    17    16 ar
    19    17     8 ar
    20    15     4 ar
    21    16     5 ar
    22     8    14 ar
    23     2     1 ar
    24     4     1 ar
    25     5     3 ar
    26    14     3 ar
    27    14    72 1
    28    72    18 1
    29    30    18 ar
    30    30    10 ar
    31    18    12 ar
    32    10    29 ar
    33    12    31 1
    34    12    11 ar
    35    35    27 1
    36    73    31 1
    37    73    26 1
    38    29    11 ar
    39    31     9 1
    40    11     6 1
    41    27    28 1
    42     9     6 2
    43    37    26 1
    44    37    28 1
    45     1    39 1
    46     2    40 1
    47     3    41 1
    48     4    42 1
    49     5    43 1
    50     6    44 1
    51     7    45 1
    52     8    46 1
    53     9    47 1
    54    10    48 1
    55    20    49 1
    56    20    50 1
    57    21    51 1
    58    21    52 1
    59    22    53 1
    60    22    54 1
    61    23    55 1
    62    23    56 1
    63    24    57 1
    64    24    58 1
    65    25    59 1
    66    73    60 1
    67    73    61 1
    68    26    62 1
    69    26    63 1
    70    27    64 1
    71    27    65 1
    72    28    66 1
    73    28    67 1
    74    72    68 1
    75    32    69 1
    76    33    70 1
    77    35    71 1
@<TRIPOS>SUBSTRUCTURE
     1 W2R         1 TEMP              0 ****  ****    0 ROOT
