@<TRIPOS>MOLECULE
W2R
   73    77     1     0     0
SMALL
bcc


@<TRIPOS>ATOM
      1 C1           0.0000     0.0000     0.0000 ca         1 W2R      -0.067000
      2 C2           1.3810     0.0000     0.0000 ca         1 W2R      -0.147000
      3 C3          -0.2140     3.4990     4.4850 ca         1 W2R      -0.066000
      4 C4          -0.6930     0.0050     1.1960 ca         1 W2R      -0.130000
      5 C5          -0.1190     2.3080     3.7930 ca         1 W2R      -0.174000
      6 C6          -0.9230     9.4670     6.6000 cc         1 W2R      -0.279800
      7 C7           1.3840     0.0020     2.4030 ca         1 W2R      -0.132000
      8 C8          -1.6280     2.4380     6.1160 ca         1 W2R      -0.102000
      9 C9          -0.9350     8.8990     7.8210 cd         1 W2R      -0.243100
     10 C10         -1.0120     7.1500     3.6830 ca         1 W2R       0.639900
     11 C11         -0.9610     8.3830     5.6240 ca         1 W2R       0.438100
     12 C12         -0.9890     7.1920     6.3710 ca         1 W2R      -0.511800
     13 C13          2.0770     0.0000     1.2020 ca         1 W2R      -0.055400
     14 C14         -0.9660     3.5670     5.6510 ca         1 W2R      -0.025400
     15 C15         -0.0030     0.0070     2.4000 ca         1 W2R       0.124100
     16 C16         -0.7790     1.1800     4.2570 ca         1 W2R       0.136100
     17 C17         -1.5380     1.2480     5.4190 ca         1 W2R      -0.054600
     18 C18         -1.0270     5.9790     5.6750 ca         1 W2R       0.550200
     19 C19          4.1480    -0.6460     2.1790 c          1 W2R       0.566100
     20 C20          8.5790    -2.7230     4.2380 c3         1 W2R      -0.028400
     21 C21          7.2460    -3.4290     3.9890 c3         1 W2R      -0.017400
     22 C22          8.3190    -1.2760     4.6630 c3         1 W2R      -0.017400
     23 C23          6.4830    -2.7020     2.8790 c3         1 W2R      -0.041400
     24 C24          7.5560    -0.5480     3.5540 c3         1 W2R      -0.041400
     25 C25          6.2220    -1.2550     3.3040 c3         1 W2R       0.032700
     26 C27          0.4010     5.9910     9.0020 c3         1 W2R       0.182400
     27 C28          1.5030     3.4860    11.5330 c3         1 W2R       0.222400
     28 C29          1.6410     4.4460    10.3500 c3         1 W2R       0.208400
     29 N30         -0.9740     8.3150     4.2910 nb         1 W2R      -0.624000
     30 N31         -1.0340     6.0070     4.3450 nb         1 W2R      -0.698000
     31 N32         -0.9730     7.5410     7.7010 na         1 W2R       0.424600
     32 N34          3.4770    -0.0050     1.2020 ns         1 W2R      -0.057100
     33 N35          5.4920    -0.5590     2.2420 ns         1 W2R      -0.211900
     34 O36          3.5420    -1.3030     3.0030 o          1 W2R      -0.688100
     35 O37          0.6180     2.4210    11.1820 oh         1 W2R      -0.583800
     36 O38         -0.6860     0.0070     3.5750 os         1 W2R      -0.208200
     37 O39          0.3810     5.0710    10.0940 os         1 W2R      -0.403600
     38 Cl1         -2.3640    -0.1630     5.9990 cl         1 W2R      -0.007400
     39 H1          -0.5410    -0.0010    -0.9390 ha         1 W2R       0.105000
     40 H2           1.9230    -0.0030    -0.9380 ha         1 W2R       0.105000
     41 H3           0.3020     4.3790     4.1220 ha         1 W2R       0.137000
     42 H4          -1.7760     0.0070     1.1940 ha         1 W2R       0.118000
     43 H5           0.4700     2.2540     2.8860 ha         1 W2R       0.129000
     44 H6          -0.8940    10.5290     6.3830 ha         1 W2R       0.139000
     45 H7           1.9250     0.0020     3.3420 ha         1 W2R       0.157000
     46 H8          -2.2170     2.4910     7.0230 ha         1 W2R       0.118000
     47 H9          -0.9180     9.4410     8.7590 h4         1 W2R       0.144000
     48 H10         -1.0190     7.1250     2.6000 h5         1 W2R      -0.003900
     49 H11          9.1660    -2.7300     3.3270 hc         1 W2R       0.013700
     50 H12          9.1180    -3.2380     5.0240 hc         1 W2R       0.013700
     51 H13          7.4320    -4.4530     3.6860 hc         1 W2R       0.016200
     52 H14          6.6570    -3.4170     4.8980 hc         1 W2R       0.016200
     53 H15          7.7280    -1.2690     5.5710 hc         1 W2R       0.016200
     54 H16          9.2640    -0.7770     4.8380 hc         1 W2R       0.016200
     55 H17          5.5380    -3.2020     2.7050 hc         1 W2R       0.020200
     56 H18          7.0740    -2.7100     1.9720 hc         1 W2R       0.020200
     57 H19          8.1460    -0.5590     2.6450 hc         1 W2R       0.020200
     58 H20          7.3700     0.4750     3.8580 hc         1 W2R       0.020200
     59 H21          5.6360    -1.2490     4.2150 h1         1 W2R       0.061700
     60 H22         -1.2810     7.1170     9.7270 h1         1 W2R       0.044200
     61 H23         -1.7060     5.8080     8.6150 h1         1 W2R       0.044200
     62 H24          0.6900     5.4720     8.0970 h1         1 W2R       0.003700
     63 H25          1.1140     6.7810     9.2080 h1         1 W2R       0.003700
     64 H26          2.4760     3.0790    11.7830 h1         1 W2R      -0.007800
     65 H27          1.1050     4.0190    12.3870 h1         1 W2R      -0.007800
     66 H28          1.9550     3.8950     9.4720 h1         1 W2R      -0.000300
     67 H29          2.3780     5.2040    10.5840 h1         1 W2R      -0.000300
     68 H30         -1.1740     4.7620     7.3510 hn         1 W2R       0.301800
     69 H31          3.9780     0.4580     0.4700 hn         1 W2R       0.161500
     70 H32          5.9900    -0.0140     1.5660 hn         1 W2R       0.166500
     71 H33          0.6180     1.7730    11.8660 ho         1 W2R       0.391000
     72 N33         -1.0570     4.7720     6.3570 nu         1 W2R      -0.331300
     73 C26         -0.9930     6.5970     8.8210 c3         1 W2R      -0.060700
@<TRIPOS>BOND
     1     1     2 ar  
     2     1     4 ar  
     3     1    39 1   
     4     2    13 ar  
     5     2    40 1   
     6     3     5 ar  
     7     3    14 ar  
     8     3    41 1   
     9     4    15 ar  
    10     4    42 1   
    11     5    16 ar  
    12     5    43 1   
    13     6     9 2   
    14     6    11 1   
    15     6    44 1   
    16     7    13 ar  
    17     7    15 ar  
    18     7    45 1   
    19     8    14 ar  
    20     8    17 ar  
    21     8    46 1   
    22     9    31 1   
    23     9    47 1   
    24    10    29 ar  
    25    10    30 ar  
    26    10    48 1   
    27    11    12 ar  
    28    11    29 ar  
    29    12    18 ar  
    30    12    31 1   
    31    13    32 1   
    32    14    72 1   
    33    15    36 1   
    34    16    17 ar  
    35    16    36 1   
    36    17    38 1   
    37    18    30 ar  
    38    18    72 1   
    39    19    32 1   
    40    19    33 1   
    41    19    34 2   
    42    20    21 1   
    43    20    22 1   
    44    20    49 1   
    45    20    50 1   
    46    21    23 1   
    47    21    51 1   
    48    21    52 1   
    49    22    24 1   
    50    22    53 1   
    51    22    54 1   
    52    23    25 1   
    53    23    55 1   
    54    23    56 1   
    55    24    25 1   
    56    24    57 1   
    57    24    58 1   
    58    25    33 1   
    59    25    59 1   
    60    26    37 1   
    61    26    62 1   
    62    26    63 1   
    63    26    73 1   
    64    27    28 1   
    65    27    35 1   
    66    27    64 1   
    67    27    65 1   
    68    28    37 1   
    69    28    66 1   
    70    28    67 1   
    71    31    73 1   
    72    32    69 1   
    73    33    70 1   
    74    35    71 1   
    75    60    73 1   
    76    61    73 1   
    77    68    72 1   
@<TRIPOS>SUBSTRUCTURE
     1 W2R         1 TEMP              0 ****  ****    0 ROOT
