@<TRIPOS>MOLECULE
molecule
   49    48     1     0     0
SMALL
bcc


@<TRIPOS>ATOM
      1 O43          0.0000     0.0000     0.0000 o          1 W2X      -0.829800
      2 C31          1.3420     0.0000     0.0000 c          1 W2X       0.879600
      3 O42          1.9470     0.0000    -1.0450 o          1 W2X      -0.829800
      4 C30          2.0960     0.0000     1.3060 c3         1 W2X       0.050100
      5 O29          3.5230     0.0010     1.0410 os         1 W2X      -0.406900
      6 C13          4.1830     1.1630     0.9180 c          1 W2X       0.647100
      7 O18          3.5900     2.2090     1.0280 o          1 W2X      -0.558000
      8 C12          5.6640     1.1630     0.6430 c3         1 W2X       0.127900
      9 C16          6.3820     0.4530     1.7610 c2         1 W2X       0.019400
     10 S17          6.2560     1.0540     3.4110 sh         1 W2X      -0.347400
     11 C25          7.1070    -0.6210     1.5030 c2         1 W2X      -0.200000
     12 N11          6.1440     2.5440     0.5530 ns         1 W2X      -0.549900
     13 C10          7.1950     2.8420    -0.2350 c          1 W2X       0.664100
     14 O15          7.7440     1.9670    -0.8710 o          1 W2X      -0.637100
     15 C7           7.6900     4.2620    -0.3270 c3         1 W2X      -0.152400
     16 C4           8.8830     4.3270    -1.2810 c3         1 W2X      -0.085400
     17 C3           9.3850     5.7690    -1.3750 c3         1 W2X      -0.096400
     18 C2          10.5780     5.8340    -2.3300 c3         1 W2X      -0.015500
     19 N14         11.6550     4.9730    -1.8270 nz         1 W2X      -0.790600
     20 C1          11.0720     7.2540    -2.4220 c          1 W2X       0.867600
     21 O20         10.5690     8.0800    -3.3530 o          1 W2X      -0.780800
     22 O19         11.9200     7.6490    -1.6590 o          1 W2X      -0.780800
     23 C32          1.7260    -1.2490     2.1080 c3         1 W2X      -0.048700
     24 C37          2.0950    -2.4970     1.3060 c3         1 W2X       0.139400
     25 C33          2.4910    -1.2490     3.4330 c3         1 W2X      -0.086100
     26 O31          1.7500    -3.6650     2.0550 oh         1 W2X      -0.632800
     27 H30          1.8330     0.8840     1.8740 h1         1 W2X       0.067700
     28 H12          5.8580     0.6520    -0.2920 h1         1 W2X       0.122700
     29 HS           7.3710     0.7680     4.0730 hs         1 W2X       0.190800
     30 H251         7.6240    -1.1320     2.3070 ha         1 W2X       0.123500
     31 H252         7.1850    -0.9910     0.4880 ha         1 W2X       0.123500
     32 H11          5.6810     3.2680     1.0640 hn         1 W2X       0.342500
     33 H7C1         7.9950     4.6020     0.6550 hc         1 W2X       0.070700
     34 H7C2         6.8960     4.8980    -0.6990 hc         1 W2X       0.070700
     35 H4C1         8.5780     3.9860    -2.2630 hc         1 W2X       0.044700
     36 H4C2         9.6770     3.6910    -0.9090 hc         1 W2X       0.044700
     37 H3C1         9.6890     6.1100    -0.3930 hc         1 W2X       0.083700
     38 H3C2         8.5900     6.4040    -1.7470 hc         1 W2X       0.083700
     39 H2          10.2740     5.4930    -3.3120 hx         1 W2X       0.107700
     40 H141        11.6970     5.0410    -0.8290 hn         1 W2X       0.438800
     41 H142        11.4730     4.0240    -2.0890 hn         1 W2X       0.438800
     42 H32          0.6610    -1.2490     2.3060 hc         1 W2X       0.091700
     43 H371         3.1590    -2.4980     1.1070 h1         1 W2X       0.041700
     44 H372         1.5520    -2.4970     0.3680 h1         1 W2X       0.041700
     45 H331         2.6870    -0.2270     3.7360 hc         1 W2X       0.026033
     46 H332         3.4290    -1.7750     3.3080 hc         1 W2X       0.026033
     47 H333         1.8980    -1.7430     4.1920 hc         1 W2X       0.026033
     48 H31          1.6870    -4.4040     1.4740 ho         1 W2X       0.387000
     49 H143        12.5280     5.2690    -2.2140 hn         1 W2X       0.438800
@<TRIPOS>BOND
     1     1     2 1
     2     2     3 1
     3     2     4 1
     4     4     5 1
     5     4    23 1
     6     4    27 1
     7     5     6 1
     8     6     7 2
     9     6     8 1
    10     8     9 1
    11     8    12 1
    12     8    28 1
    13     9    10 1
    14     9    11 2
    15    10    29 1
    16    11    30 1
    17    11    31 1
    18    12    13 1
    19    12    32 1
    20    13    14 2
    21    13    15 1
    22    15    16 1
    23    15    33 1
    24    15    34 1
    25    16    17 1
    26    16    35 1
    27    16    36 1
    28    17    18 1
    29    17    37 1
    30    17    38 1
    31    18    19 1
    32    18    20 1
    33    18    39 1
    34    19    40 1
    35    19    41 1
    36    20    21 1
    37    20    22 1
    38    23    24 1
    39    23    25 1
    40    23    42 1
    41    24    26 1
    42    24    43 1
    43    24    44 1
    44    25    45 1
    45    25    46 1
    46    25    47 1
    47    26    48 1
    48    49    19 1
@<TRIPOS>SUBSTRUCTURE
     1 W2X         1 TEMP              0 ****  ****    0 ROOT
