@<TRIPOS>MOLECULE
molecule
   46    47     1     0     0
SMALL
bcc


@<TRIPOS>ATOM
      1 C07          0.0000     0.0000     0.0000 c3         1 W30      -0.050800
      2 C06          3.7790     0.0000     0.0000 ca         1 W30       0.478600
      3 C05          2.4760     0.0000     0.4550 ca         1 W30      -0.311300
      4 C04          1.4340     0.0000    -0.4630 ca         1 W30      -0.003300
      5 C03          1.7420    -0.0000    -1.8110 ca         1 W30      -0.329300
      6 C02          3.0780    -0.0000    -2.2000 ca         1 W30       0.711200
      7 N02          3.4030    -0.0010    -3.5510 nv         1 W30      -1.014500
      8 N01          4.0430     0.0050    -1.2930 nb         1 W30      -0.774000
      9 C09          5.8420    -1.1810     0.7040 c3         1 W30      -0.028100
     10 C16          8.9790    -1.2310     3.5440 ca         1 W30       0.329200
     11 C15          9.1710    -0.5220     2.3650 ca         1 W30       0.086300
     12 C14          8.1490    -0.4950     1.4190 ca         1 W30      -0.173000
     13 C13          6.9770    -1.1810     1.6950 ca         1 W30      -0.160600
     14 C12          6.8620    -1.8640     2.8920 ca         1 W30       0.355200
     15 N11          7.8480    -1.8700     3.7670 nb         1 W30      -0.652000
     16 C18         10.5620     0.9000     0.8850 c3         1 W30       0.236100
     17 C19         11.4380     0.1180     3.1350 c3         1 W30       0.239800
     18 C20         12.3550    -1.0750     2.8620 c3         1 W30       0.109400
     19 O21         13.0180    -0.8900     1.6090 os         1 W30      -0.430600
     20 C22         13.9040    -1.9550     1.2570 c3         1 W30       0.129700
     21 H021         2.6770    -0.0000    -4.2400 hn         1 W30       0.438300
     22 H022         4.3620     0.0040    -3.8350 hn         1 W30       0.438300
     23 H03          0.9640    -0.1780    -2.5440 ha         1 W30       0.133000
     24 H071        -0.6440     0.2990    -0.8180 hc         1 W30       0.047033
     25 H072        -0.1140     0.6960     0.8220 hc         1 W30       0.047033
     26 H073        -0.2730    -0.9950     0.3290 hc         1 W30       0.047033
     27 H05          2.2680    -0.0040     1.5180 ha         1 W30       0.137000
     28 H081         5.4700     0.9270     0.9020 hc         1 W30       0.059200
     29 H082         4.5170    -0.0870     1.9950 hc         1 W30       0.059200
     30 H091         5.2860    -2.1060     0.7920 hc         1 W30       0.060700
     31 H092         6.2400    -1.0920    -0.3000 hc         1 W30       0.060700
     32 H12          5.9480    -2.4020     3.1140 h4         1 W30       0.020100
     33 H14          8.2670     0.0500     0.4890 ha         1 W30       0.144000
     34 H16          9.7660    -1.2590     4.2870 h4         1 W30       0.017100
     35 H181        11.5310     1.3830     0.8970 h1         1 W30       0.038033
     36 H182        10.5080     0.2190     0.0440 h1         1 W30       0.038033
     37 H183         9.7860     1.6500     0.7920 h1         1 W30       0.038033
     38 H191        11.0030     0.0210     4.1220 h1         1 W30       0.060200
     39 H192        12.0140     1.0350     3.0830 h1         1 W30       0.060200
     40 H201        13.0920    -1.1530     3.6520 h1         1 W30       0.032200
     41 H202        11.7660    -1.9830     2.8270 h1         1 W30       0.032200
     42 H221        14.6780    -2.0450     2.0100 h1         1 W30       0.030367
     43 H222        14.3570    -1.7450     0.2960 h1         1 W30       0.030367
     44 H223        13.3470    -2.8830     1.1990 h1         1 W30       0.030367
     45 C08          4.9140     0.0010     0.9910 c3         1 W30      -0.120700
     46 N17         10.3710     0.1540     2.1320 nh         1 W30      -0.725000
@<TRIPOS>BOND
     1     7     6 1
     2     6     5 ar
     3     6     8 ar
     4     5     4 ar
     5     4     1 1
     6     4     3 ar
     7     3     2 ar
     8     8     2 ar
     9     2    45 1
    10    45     9 1
    11     9    13 1
    12    13    14 ar
    13    13    12 ar
    14    14    15 ar
    15    12    11 ar
    16    11    10 ar
    17    11    46 1
    18    10    15 ar
    19    46    16 1
    20    46    17 1
    21    17    18 1
    22    18    19 1
    23    19    20 1
    24     7    21 1
    25     7    22 1
    26     5    23 1
    27     1    24 1
    28     1    25 1
    29     1    26 1
    30     3    27 1
    31    45    28 1
    32    45    29 1
    33     9    30 1
    34     9    31 1
    35    14    32 1
    36    12    33 1
    37    10    34 1
    38    16    35 1
    39    16    36 1
    40    16    37 1
    41    17    38 1
    42    17    39 1
    43    18    40 1
    44    18    41 1
    45    20    42 1
    46    20    43 1
    47    20    44 1
@<TRIPOS>SUBSTRUCTURE
     1 W30         1 TEMP              0 ****  ****    0 ROOT
