@<TRIPOS>MOLECULE
molecule
   59    62     1     0     0
SMALL
bcc


@<TRIPOS>ATOM
      1 C14          0.0000     0.0000     0.0000 ca         1 W31      -0.110000
      2 C5           5.0970     4.5920    -5.1510 ca         1 W31       0.043900
      3 C6           4.8290     4.0540    -3.8980 ca         1 W31      -0.103000
      4 C11          2.1360    -0.0000    -1.3050 c3         1 W31       0.195400
      5 C7           5.3510     2.8240    -3.5510 ca         1 W31      -0.062300
      6 C8           5.0590     2.2400    -2.1920 c3         1 W31      -0.076100
      7 C9           3.8050     1.4070    -2.2630 c          1 W31       0.623100
      8 C12          2.5000    -1.4360    -1.6840 c3         1 W31      -0.108100
      9 C13          1.3820     0.0000     0.0000 ca         1 W31      -0.092300
     10 C3           3.3820     6.5510    -4.2410 ce         1 W31      -0.178600
     11 C2           2.2270     5.7750    -4.0300 c          1 W31       0.569300
     12 O10          3.3500     0.7850    -1.1640 os         1 W31      -0.432900
     13 C15         -0.6900     0.0050     1.1970 ca         1 W31      -0.131000
     14 C16          0.0000     0.0110     2.3940 ca         1 W31      -0.125000
     15 C17          1.3830     0.0110     2.3940 ca         1 W31      -0.131000
     16 C18          2.0740     0.0000     1.1970 ca         1 W31      -0.110000
     17 O19          3.2090     1.2980    -3.3080 o          1 W31      -0.524000
     18 C20          6.1410     2.1270    -4.4460 ca         1 W31      -0.113000
     19 C21          6.4110     2.6580    -5.6940 ca         1 W31      -0.104000
     20 C22          5.8930     3.8880    -6.0510 ca         1 W31       0.041400
     21 Cl23         6.2310     4.5540    -7.6170 cl         1 W31      -0.096400
     22 C24          3.6960     7.5840    -3.4360 c2         1 W31       0.192900
     23 O25          4.8130     8.3020    -3.6820 oh         1 W31      -0.509100
     24 C26          2.8240     7.9540    -2.2650 c3         1 W31      -0.089200
     25 C27          1.3700     7.5850    -2.5740 c3         1 W31      -0.024400
     26 C28          1.2980     6.0840    -2.8840 c3         1 W31      -0.183400
     27 C29          0.5060     7.8950    -1.3790 ca         1 W31      -0.070300
     28 C30          0.7580     7.2830    -0.1650 ca         1 W31       0.036900
     29 Cl31         2.0660     6.1520    -0.0180 cl         1 W31      -0.088900
     30 C32         -0.0330     7.5730     0.9330 ca         1 W31      -0.113000
     31 C33         -1.0740     8.4740     0.8150 ca         1 W31      -0.111000
     32 C34         -1.3270     9.0860    -0.3980 ca         1 W31      -0.113000
     33 C35         -0.5370     8.7980    -1.4960 ca         1 W31       0.036900
     34 Cl36        -0.8490     9.5720    -3.0180 cl         1 W31      -0.088900
     35 H1          -0.5420    -0.0050    -0.9380 ha         1 W31       0.138000
     36 H2           4.2780     4.6340    -3.1670 ha         1 W31       0.136000
     37 H3           1.5150     0.4310    -2.0810 h1         1 W31       0.080700
     38 H4           4.9210     3.0420    -1.4770 hc         1 W31       0.076700
     39 H5           5.8890     1.6170    -1.8810 hc         1 W31       0.076700
     40 H6           2.0910    -2.1190    -0.9490 hc         1 W31       0.049700
     41 H7           3.5780    -1.5400    -1.7130 hc         1 W31       0.049700
     42 H8           2.0890    -1.6680    -2.6600 hc         1 W31       0.049700
     43 H9          -1.7740     0.0050     1.1970 ha         1 W31       0.130500
     44 H10         -0.5410     0.0180     3.3330 ha         1 W31       0.129000
     45 H11          1.9240     0.0140     3.3330 ha         1 W31       0.130500
     46 H12          3.1570    -0.0000     1.1970 ha         1 W31       0.138000
     47 H13          6.5480     1.1620    -4.1700 ha         1 W31       0.135000
     48 H14          7.0300     2.1090    -6.3930 ha         1 W31       0.145000
     49 H15          4.5810     9.1000    -4.1270 ho         1 W31       0.441000
     50 H16          3.1530     7.4130    -1.3860 hc         1 W31       0.081200
     51 H17          2.8940     9.0200    -2.0870 hc         1 W31       0.081200
     52 H18          1.0280     8.1480    -3.4340 hc         1 W31       0.083700
     53 H19          1.6010     5.5190    -2.0100 hc         1 W31       0.087200
     54 H20          0.2840     5.8200    -3.1590 hc         1 W31       0.087200
     55 H21          0.1640     7.0940     1.8840 ha         1 W31       0.152000
     56 H22         -1.6930     8.7010     1.6750 ha         1 W31       0.147000
     57 H23         -2.1440     9.7930    -0.4880 ha         1 W31       0.152000
     58 S4           4.4400     6.1650    -5.5970 ss         1 W31      -0.131500
     59 O1           1.9760     4.8510    -4.7780 o          1 W31      -0.493100
@<TRIPOS>BOND
     1    14    15 ar
     2    14    13 ar
     3    15    16 ar
     4    29    28 1
     5    30    31 ar
     6    30    28 ar
     7    13     1 ar
     8    31    32 ar
     9    28    27 ar
    10    16     9 ar
    11     1     9 ar
    12     9     4 1
    13    32    33 ar
    14    24    25 1
    15    24    22 1
    16    27    33 ar
    17    27    25 1
    18    33    34 1
    19    23    22 1
    20    25    26 1
    21    22    10 2
    22     8     4 1
    23     4    12 1
    24    26    11 1
    25    10    11 1
    26    10    58 1
    27    12     7 1
    28    11    59 2
    29    58     2 1
    30     7    17 2
    31     7     6 1
    32     3     2 ar
    33     3     5 ar
    34     2    20 ar
    35     6     5 1
    36     5    18 ar
    37    20    21 1
    38    20    19 ar
    39    18    19 ar
    40     1    35 1
    41     3    36 1
    42     4    37 1
    43     6    38 1
    44     6    39 1
    45     8    40 1
    46     8    41 1
    47     8    42 1
    48    13    43 1
    49    14    44 1
    50    15    45 1
    51    16    46 1
    52    18    47 1
    53    19    48 1
    54    23    49 1
    55    24    50 1
    56    24    51 1
    57    25    52 1
    58    26    53 1
    59    26    54 1
    60    30    55 1
    61    31    56 1
    62    32    57 1
@<TRIPOS>SUBSTRUCTURE
     1 W31         1 TEMP              0 ****  ****    0 ROOT
