@<TRIPOS>MOLECULE
W31
   59    59     1     0     0
SMALL
bcc


@<TRIPOS>ATOM
      1 C14         0.0910    0.4360   -1.1360 c3        1 W31     -0.062000
      2 C5          4.5410    4.1640   -5.4000 c2        1 W31     -0.183000
      3 C6          4.6930    3.6620   -4.0550 c2        1 W31     -0.152000
      4 C11         2.5970    0.4640   -1.0300 c3        1 W31      0.024000
      5 C7          5.5200    2.6290   -3.7680 c2        1 W31     -0.067000
      6 C8          5.6570    2.1060   -2.3810 c3        1 W31     -0.129000
      7 C9          4.6650    1.0060   -2.1270 c2        1 W31      0.313000
      8 C12         2.9510   -0.3210    0.2230 c3        1 W31     -0.235000
      9 C13         1.3170    1.2370   -0.8330 c2        1 W31      0.240000
     10 C3          2.8430    5.9980   -4.3630 c2        1 W31     -0.581000
     11 C2          1.8030    5.2390   -3.6480 c2        1 W31      0.288000
     12 O10         3.6470    1.4100   -1.3050 os        1 W31     -0.259000
     13 C15        -1.1130    0.9520   -0.5610 c1        1 W31     -0.183000
     14 C16        -2.1320    1.3650   -0.0910 c1        1 W31     -0.167000
     15 C17         1.2380    3.7270   -0.1060 c1        1 W31      0.135000
     16 C18         1.2800    2.5040   -0.4470 c1        1 W31     -0.513000
     17 O19         4.6790   -0.1540   -2.5380 o         1 W31     -0.344000
     18 C20         6.3180    1.9730   -4.8350 c3        1 W31     -0.190000
     19 C21         6.1790    2.5040   -6.1840 c1        1 W31     -0.079000
     20 C22         5.2860    3.5670   -6.4070 c2        1 W31     -0.172000
     21 CL23        5.1200    4.1480   -7.9990 cl        1 W31      0.000000
     22 C24         3.2000    7.2350   -3.8980 c2        1 W31      0.218000
     23 O25         4.1420    8.0230   -4.4780 oh        1 W31     -0.235000
     24 C26         2.6230    7.8970   -2.6920 c3        1 W31     -0.150000
     25 C27         1.3030    7.2600   -2.2710 c3        1 W31     -0.034000
     26 C28         1.4350    5.7470   -2.2790 c3        1 W31     -0.214000
     27 C29         0.8570    7.8020   -0.9560 c2        1 W31     -0.184000
     28 C30         1.2140    7.0760    0.3050 c3        1 W31      0.080000
     29 CL31        2.9380    7.3310    0.7040 cl        1 W31     -0.127000
     30 C32         0.4080    7.5540    1.3950 c1        1 W31     -0.175000
     31 C33        -0.3210    7.9890    2.2490 c1        1 W31     -0.107000
     32 C34        -0.5300    9.4200    0.3360 c1        1 W31     -0.022000
     33 C35         0.1050    8.9280   -0.8450 c2        1 W31     -0.091000
     34 CL36       -0.3670    9.8770   -2.1880 cl        1 W31      0.020000
     35 H1         -0.0130    0.4080   -2.2640 hc        1 W31      0.135500
     36 H2          4.0880    4.1380   -3.2640 ha        1 W31      0.146000
     37 H3          2.4860   -0.2350   -1.9100 h1        1 W31      0.134000
     38 H4          5.5010    2.9280   -1.6300 hc        1 W31      0.131500
     39 H5          6.6840    1.6750   -2.2270 hc        1 W31      0.131500
     40 H6          3.8910   -0.8950    0.0370 hc        1 W31      0.100333
     41 H7          3.1140    0.3680    1.0850 hc        1 W31      0.100333
     42 H8          2.1290   -1.0360    0.4700 hc        1 W31      0.100333
     43 H9          0.2440   -0.6300   -0.7900 hc        1 W31      0.135500
     44 H10         0.2950   -2.5300    0.6100 ha        1 W31      0.002000
     45 H11        -3.0350    1.7350    0.3250 ha        1 W31      0.228000
     46 H12         0.5780   -2.7770    0.0460 ha        1 W31      0.002000
     47 H13         7.4170    2.0070   -4.5740 hc        1 W31      0.167500
     48 H14         6.0440    0.8740   -4.8810 hc        1 W31      0.167500
     49 H15         4.5400    7.5550   -5.2390 ho        1 W31      0.249000
     50 H16         3.3790    7.8120   -1.8610 hc        1 W31      0.134500
     51 H17         2.4730    8.9910   -2.8980 hc        1 W31      0.134500
     52 H18         0.5230    7.5300   -3.0450 hc        1 W31      0.113000
     53 H19         2.2410    5.4140   -1.5660 hc        1 W31      0.131000
     54 H20         0.4730    5.2720   -1.9470 hc        1 W31      0.131000
     55 H21         1.1070    5.9510    0.1970 h1        1 W31      0.203000
     56 H22        -0.9660    8.3410    3.0170 ha        1 W31      0.240000
     57 H23        -0.0790   10.2370    0.9090 ha        1 W31      0.100000
     58 S4          3.4990    5.4020   -5.8090 ss        1 W31      0.507000
     59 O1          1.2790    4.2180   -4.1060 o         1 W31     -0.289000
@<TRIPOS>BOND
     1    1    9 1   
     2    1   13 1   
     3    1   35 1   
     4    1   43 1   
     5    2    3 1   
     6    2   20 1   
     7    2   58 1   
     8    3    5 1   
     9    3   36 1   
    10    4    8 1   
    11    4    9 1   
    12    4   12 1   
    13    4   37 1   
    14    5    6 1   
    15    5   18 1   
    16    6    7 1   
    17    6   38 1   
    18    6   39 1   
    19    7   12 1   
    20    7   17 1   
    21    8   40 1   
    22    8   41 1   
    23    8   42 1   
    24    9   16 1   
    25   10   11 1   
    26   10   22 1   
    27   10   58 1   
    28   11   26 1   
    29   11   59 1   
    30   13   14 1   
    31   14   45 1   
    32   15   16 1   
    33   18   19 1   
    34   18   47 1   
    35   18   48 1   
    36   19   20 1   
    37   20   21 1   
    38   22   23 1   
    39   22   24 1   
    40   23   49 1   
    41   24   25 1   
    42   24   50 1   
    43   24   51 1   
    44   25   26 1   
    45   25   27 1   
    46   25   52 1   
    47   26   53 1   
    48   26   54 1   
    49   27   28 1   
    50   27   33 1   
    51   28   29 1   
    52   28   30 1   
    53   28   55 1   
    54   30   31 1   
    55   31   56 1   
    56   32   33 1   
    57   32   57 1   
    58   33   34 1   
    59   44   46 1   
@<TRIPOS>SUBSTRUCTURE
     1 W31         1 TEMP              0 ****  ****    0 ROOT
