@<TRIPOS>MOLECULE
molecule
   62    65     1     0     0
SMALL
bcc


@<TRIPOS>ATOM
      1 C1           0.0000     0.0000     0.0000 ca         1 W32      -0.124000
      2 C2           1.3830     0.0000     0.0000 ca         1 W32      -0.086000
      3 C3          -1.6470    -3.5020     3.6580 ca         1 W32      -0.124000
      4 C4          -0.6910     0.0010     1.1960 ca         1 W32      -0.120000
      5 C5          -1.0530    -2.3240     3.2530 ca         1 W32      -0.181000
      6 C6           1.3900     0.0020     2.3940 ca         1 W32      -0.085000
      7 C7          -2.6460    -2.3570     5.5220 ca         1 W32      -0.088000
      8 C8          -2.8720    -4.4170     8.7560 ca         1 W32       0.747900
      9 C9          -3.9410    -6.1110     6.9730 ca         1 W32      -0.402400
     10 C10          2.0770     0.0000     1.1960 ca         1 W32      -0.171300
     11 C11         -2.4470    -3.5220     4.7930 ca         1 W32       0.130600
     12 C12          0.0020     0.0030     2.3970 ca         1 W32       0.097100
     13 C13         -1.2560    -1.1580     3.9780 ca         1 W32       0.121100
     14 C14         -2.0560    -1.1770     5.1120 ca         1 W32       0.019400
     15 C15         -4.1120    -6.3110     8.3580 ca         1 W32       0.708200
     16 C16         -3.2270    -4.9790     6.5440 ca         1 W32       0.747200
     17 C17         -4.4990    -7.0800     6.0370 ce         1 W32       0.010800
     18 C18         -5.7930    -7.4810     6.1630 cf         1 W32      -0.205400
     19 C19         -6.3150    -8.4800     5.3050 c          1 W32       0.680300
     20 C20         -6.6690    -6.8560     7.2180 c3         1 W32      -0.047200
     21 C21         -6.3040    -7.3730     8.6070 c3         1 W32       0.200800
     22 C22        -11.9820   -11.5900     4.3860 c3         1 W32      -0.227300
     23 C23         -8.1370    -9.9090     4.5450 c3         1 W32       0.142000
     24 C24         -9.6030   -10.1680     4.8970 c3         1 W32      -0.237600
     25 C25          3.5840    -0.0000     1.1920 c3         1 W32       0.676200
     26 N26         -3.5570    -5.4530     9.2040 nb         1 W32      -0.823000
     27 N27         -2.7100    -4.1720     7.4720 nb         1 W32      -0.815000
     28 N28         -4.8550    -7.3890     8.7920 nu         1 W32      -0.816900
     29 N30         -7.5970    -8.8750     5.4330 ns         1 W32      -0.586900
     30 O31         -5.6040    -8.9830     4.4530 o          1 W32      -0.614100
     31 O32         -9.5980   -12.6710     4.0670 o          1 W32      -0.603300
     32 O33        -10.2880   -10.9420     2.4720 o          1 W32      -0.603300
     33 O34         -0.6760     0.0040     3.5740 os         1 W32      -0.232200
     34 F35          4.0520    -1.1420     1.8510 f          1 W32      -0.220967
     35 F36          4.0470    -0.0010    -0.1280 f          1 W32      -0.220967
     36 F37          4.0530     1.1420     1.8500 f          1 W32      -0.220967
     37 S38        -10.2710   -11.4490     3.8000 s6         1 W32       1.107000
     38 Cl1         -2.3100     0.2810     6.0200 cl         1 W32      -0.085400
     39 H1          -0.5410    -0.0000    -0.9380 ha         1 W32       0.145000
     40 H2           1.9230    -0.0010    -0.9390 ha         1 W32       0.154000
     41 H3          -1.4900    -4.4110     3.0900 ha         1 W32       0.141000
     42 H4          -1.7740     0.0020     1.1960 ha         1 W32       0.152000
     43 H5          -0.4290    -2.3090     2.3680 ha         1 W32       0.152000
     44 H6           1.9350     0.0020     3.3310 ha         1 W32       0.162000
     45 H7          -3.2710    -2.3720     6.4070 ha         1 W32       0.174000
     46 H8          -2.4340    -3.7350     9.4750 h5         1 W32       0.063100
     47 H9          -3.8710    -7.5110     5.2660 ha         1 W32       0.158000
     48 H10         -6.5410    -5.7810     7.1950 hc         1 W32       0.052200
     49 H11         -7.7040    -7.1010     7.0100 hc         1 W32       0.052200
     50 H12         -6.6870    -8.3800     8.7230 h1         1 W32       0.045200
     51 H13         -6.7500    -6.7280     9.3540 h1         1 W32       0.045200
     52 H14        -11.9830   -11.8810     5.4290 h1         1 W32       0.098367
     53 H15        -12.4810   -10.6340     4.2770 h1         1 W32       0.098367
     54 H16        -12.5030   -12.3380     3.8010 h1         1 W32       0.098367
     55 H17         -7.5690   -10.8230     4.6680 h1         1 W32       0.071200
     56 H18         -8.0660    -9.5750     3.5170 h1         1 W32       0.071200
     57 H19        -10.1720    -9.2540     4.7730 h1         1 W32       0.096700
     58 H20         -9.6750   -10.5010     5.9250 h1         1 W32       0.096700
     59 H21         -4.6430    -7.5750     9.7520 hn         1 W32       0.397800
     60 H22         -3.3630    -5.3780     4.5180 hn         1 W32       0.467800
     61 H23         -8.1850    -8.4490     6.1210 hn         1 W32       0.315500
     62 N29         -3.0540    -4.7160     5.2010 nu         1 W32      -0.754300
@<TRIPOS>BOND
     1     1     2 ar
     2     1     4 ar
     3    36    25 1
     4     2    10 ar
     5     4    12 ar
     6    10    25 1
     7    10     6 ar
     8    12     6 ar
     9    12    33 1
    10    25    35 1
    11    25    34 1
    12    33    13 1
    13    38    14 1
    14    13    14 ar
    15    13     5 ar
    16    14     7 ar
    17     5     3 ar
    18     7    11 ar
    19     3    11 ar
    20    11    62 1
    21    62    16 1
    22    27    16 ar
    23    27     8 ar
    24    16     9 ar
    25     8    26 ar
    26     9    17 1
    27     9    15 ar
    28    26    15 ar
    29    17    18 2
    30    15    28 1
    31    29    23 1
    32    29    19 1
    33    23    24 1
    34    28    21 1
    35    18    19 1
    36    18    20 1
    37    31    37 2
    38    19    30 2
    39    24    37 1
    40    21    20 1
    41    37    32 2
    42    37    22 1
    43     1    39 1
    44     2    40 1
    45     3    41 1
    46     4    42 1
    47     5    43 1
    48     6    44 1
    49     7    45 1
    50     8    46 1
    51    17    47 1
    52    20    48 1
    53    20    49 1
    54    21    50 1
    55    21    51 1
    56    22    52 1
    57    22    53 1
    58    22    54 1
    59    23    55 1
    60    23    56 1
    61    24    57 1
    62    24    58 1
    63    28    59 1
    64    62    60 1
    65    29    61 1
@<TRIPOS>SUBSTRUCTURE
     1 W32         1 TEMP              0 ****  ****    0 ROOT
