@<TRIPOS>MOLECULE
W32
   62    65     1     0     0
SMALL
bcc


@<TRIPOS>ATOM
      1 C1           0.0000     0.0000     0.0000 ca         1 W32      -0.092000
      2 C2           1.3830     0.0000     0.0000 ca         1 W32      -0.053000
      3 C3          -1.6470    -3.5020     3.6580 ca         1 W32      -0.087000
      4 C4          -0.6910     0.0010     1.1960 ca         1 W32      -0.095000
      5 C5          -1.0530    -2.3240     3.2530 ca         1 W32      -0.171000
      6 C6           1.3900     0.0020     2.3940 ca         1 W32      -0.052000
      7 C7          -2.6460    -2.3570     5.5220 ca         1 W32      -0.067000
      8 C8          -2.8720    -4.4170     8.7560 ca         1 W32       0.705900
      9 C9          -3.9410    -6.1110     6.9730 ca         1 W32      -0.415400
     10 C10          2.0770     0.0000     1.1960 ca         1 W32      -0.196300
     11 C11         -2.4470    -3.5220     4.7930 ca         1 W32      -0.032400
     12 C12          0.0020     0.0030     2.3970 ca         1 W32       0.101100
     13 C13         -1.2560    -1.1580     3.9780 ca         1 W32       0.129100
     14 C14         -2.0560    -1.1770     5.1120 ca         1 W32      -0.053600
     15 C15         -4.1120    -6.3110     8.3580 ca         1 W32       0.575200
     16 C16         -3.2270    -4.9790     6.5440 ca         1 W32       0.555200
     17 C17         -4.4990    -7.0800     6.0370 ce         1 W32       0.054800
     18 C18         -5.7930    -7.4810     6.1630 cf         1 W32      -0.235400
     19 C19         -6.3150    -8.4800     5.3050 c          1 W32       0.606300
     20 C20         -6.6690    -6.8560     7.2180 c3         1 W32       0.020800
     21 C21         -6.3040    -7.3730     8.6070 c3         1 W32       0.169800
     22 C22        -11.9820   -11.5900     4.3860 c3         1 W32       0.014700
     23 C23         -8.1370    -9.9090     4.5450 c3         1 W32       0.089000
     24 C24         -9.6030   -10.1680     4.8970 c3         1 W32      -0.038600
     25 C25          3.5840    -0.0000     1.1920 c3         1 W32       0.641200
     26 N26         -3.5570    -5.4530     9.2040 nb         1 W32      -0.724000
     27 N27         -2.7100    -4.1720     7.4720 nb         1 W32      -0.715000
     28 N28         -4.8550    -7.3890     8.7920 nu         1 W32      -0.512900
     29 N30         -7.5970    -8.8750     5.4330 ns         1 W32      -0.217900
     30 O31         -5.6040    -8.9830     4.4530 o          1 W32      -0.654100
     31 O32         -9.5980   -12.6710     4.0670 o          1 W32      -0.577800
     32 O33        -10.2880   -10.9420     2.4720 o          1 W32      -0.577800
     33 O34         -0.6760     0.0040     3.5740 os         1 W32      -0.208200
     34 F35          4.0520    -1.1420     1.8510 f          1 W32      -0.206300
     35 F36          4.0470    -0.0010    -0.1280 f          1 W32      -0.206300
     36 F37          4.0530     1.1420     1.8500 f          1 W32      -0.206300
     37 S38        -10.2710   -11.4490     3.8000 s6         1 W32       0.804000
     38 Cl1         -2.3100     0.2810     6.0200 cl         1 W32      -0.001400
     39 H1          -0.5410    -0.0000    -0.9380 ha         1 W32       0.114000
     40 H2           1.9230    -0.0010    -0.9390 ha         1 W32       0.124000
     41 H3          -1.4900    -4.4110     3.0900 ha         1 W32       0.111000
     42 H4          -1.7740     0.0020     1.1960 ha         1 W32       0.121000
     43 H5          -0.4290    -2.3090     2.3680 ha         1 W32       0.127000
     44 H6           1.9350     0.0020     3.3310 ha         1 W32       0.130000
     45 H7          -3.2710    -2.3720     6.4070 ha         1 W32       0.145000
     46 H8          -2.4340    -3.7350     9.4750 h5         1 W32      -0.002900
     47 H9          -3.8710    -7.5110     5.2660 ha         1 W32       0.130000
     48 H10         -6.5410    -5.7810     7.1950 hc         1 W32       0.021700
     49 H11         -7.7040    -7.1010     7.0100 hc         1 W32       0.021700
     50 H12         -6.6870    -8.3800     8.7230 h1         1 W32       0.011700
     51 H13         -6.7500    -6.7280     9.3540 h1         1 W32       0.011700
     52 H14        -11.9830   -11.8810     5.4290 h1         1 W32       0.060367
     53 H15        -12.4810   -10.6340     4.2770 h1         1 W32       0.060367
     54 H16        -12.5030   -12.3380     3.8010 h1         1 W32       0.060367
     55 H17         -7.5690   -10.8230     4.6680 h1         1 W32       0.043700
     56 H18         -8.0660    -9.5750     3.5170 h1         1 W32       0.043700
     57 H19        -10.1720    -9.2540     4.7730 h1         1 W32       0.063700
     58 H20         -9.6750   -10.5010     5.9250 h1         1 W32       0.063700
     59 H21         -4.6430    -7.5750     9.7520 hn         1 W32       0.268800
     60 H22         -3.3630    -5.3780     4.5180 hn         1 W32       0.296800
     61 H23         -8.1850    -8.4490     6.1210 hn         1 W32       0.181500
     62 N29         -3.0540    -4.7160     5.2010 nu         1 W32      -0.279300
@<TRIPOS>BOND
     1     1     2 ar  
     2     1     4 ar  
     3     1    39 1   
     4     2    10 ar  
     5     2    40 1   
     6     3     5 ar  
     7     3    11 ar  
     8     3    41 1   
     9     4    12 ar  
    10     4    42 1   
    11     5    13 ar  
    12     5    43 1   
    13     6    10 ar  
    14     6    12 ar  
    15     6    44 1   
    16     7    11 ar  
    17     7    14 ar  
    18     7    45 1   
    19     8    26 ar  
    20     8    27 ar  
    21     8    46 1   
    22     9    15 ar  
    23     9    16 ar  
    24     9    17 1   
    25    10    25 1   
    26    11    62 1   
    27    12    33 1   
    28    13    14 ar  
    29    13    33 1   
    30    14    38 1   
    31    15    26 ar  
    32    15    28 1   
    33    16    27 ar  
    34    16    62 1   
    35    17    18 2   
    36    17    47 1   
    37    18    19 1   
    38    18    20 1   
    39    19    29 1   
    40    19    30 2   
    41    20    21 1   
    42    20    48 1   
    43    20    49 1   
    44    21    28 1   
    45    21    50 1   
    46    21    51 1   
    47    22    37 1   
    48    22    52 1   
    49    22    53 1   
    50    22    54 1   
    51    23    24 1   
    52    23    29 1   
    53    23    55 1   
    54    23    56 1   
    55    24    37 1   
    56    24    57 1   
    57    24    58 1   
    58    25    34 1   
    59    25    35 1   
    60    25    36 1   
    61    28    59 1   
    62    29    61 1   
    63    31    37 2   
    64    32    37 2   
    65    60    62 1   
@<TRIPOS>SUBSTRUCTURE
     1 W32         1 TEMP              0 ****  ****    0 ROOT
