@<TRIPOS>MOLECULE
W33
   45    47     1     0     0
SMALL
bcc


@<TRIPOS>ATOM
      1 O1         -0.0320    0.3760    0.0320 os        1 W33     -0.122100
      2 N2          1.2620    0.4530   -0.2060 nc        1 W33     -0.360300
      3 C3          1.9380    0.2770    0.9490 cd        1 W33      0.319600
      4 C31         3.4000    0.2900    1.1270 c3        1 W33     -0.132400
      5 C4          0.9720    0.0670    2.0300 cd        1 W33     -0.362600
      6 C5         -0.2590    0.1380    1.4120 cc        1 W33      0.263000
      7 C1C        -1.6570    0.0150    1.8430 c3        1 W33     -0.117700
      8 C2C        -2.3420    1.3670    1.9210 c3        1 W33     -0.077400
      9 C3C        -3.7940    1.2100    2.3200 c3        1 W33     -0.078400
     10 C4C        -4.4700    2.5590    2.4300 c3        1 W33     -0.086400
     11 C5C        -5.9300    2.3830    2.8110 c3        1 W33      0.128400
     12 O1B        -6.4550    3.7130    2.9340 os        1 W33     -0.313900
     13 C1B        -7.7830    3.8140    3.2780 ca        1 W33      0.161100
     14 C2B        -8.6200    2.7100    3.5000 ca        1 W33     -0.216000
     15 C3B        -9.9530    2.9040    3.8450 ca        1 W33     -0.048000
     16 C4B       -10.4700    4.1990    3.9720 ca        1 W33     -0.157900
     17 C5B        -9.6400    5.3070    3.7520 ca        1 W33     -0.049000
     18 C6B        -8.3010    5.1240    3.4050 ca        1 W33     -0.029600
     19 CL1        -7.3350    6.4970    3.1480 cl        1 W33     -0.066400
     20 C2A       -11.8700    4.3980    4.3340 ce        1 W33      0.636200
     21 N3A       -12.5430    5.5060    4.5050 n2        1 W33     -0.628900
     22 C4A       -13.9140    5.1610    4.8610 c3        1 W33      0.071800
     23 C5A       -13.9610    3.6110    4.8780 c3        1 W33      0.089400
     24 O1A       -12.6140    3.2100    4.5300 os        1 W33     -0.460400
     25 H311        3.9390    0.4310    0.1580 hc        1 W33      0.057700
     26 H312        3.6840    1.1230    1.8180 hc        1 W33      0.057700
     27 H313        3.7290   -0.6780    1.5820 hc        1 W33      0.057700
     28 H4          1.2100   -0.1030    3.0740 ha        1 W33      0.173000
     29 H1C1       -2.2110   -0.6430    1.1170 hc        1 W33      0.066700
     30 H1C2       -1.6820   -0.4860    2.8480 hc        1 W33      0.066700
     31 H2C1       -2.2740    1.8780    0.9240 hc        1 W33      0.056200
     32 H2C2       -1.8130    2.0170    2.6670 hc        1 W33      0.056200
     33 H3C1       -3.8600    0.6720    3.3030 hc        1 W33      0.042200
     34 H3C2       -4.3270    0.5800    1.5600 hc        1 W33      0.042200
     35 H4C1       -3.9580    3.1900    3.2030 hc        1 W33      0.063700
     36 H4C2       -4.4030    3.1090    1.4560 hc        1 W33      0.063700
     37 H5C1       -6.0320    1.8480    3.7910 h1        1 W33      0.042700
     38 H5C2       -6.4920    1.8290    2.0140 h1        1 W33      0.042700
     39 H2B        -8.2350    1.6860    3.4050 ha        1 W33      0.145000
     40 H3B       -10.6090    2.0350    4.0190 ha        1 W33      0.158000
     41 H5B       -10.0440    6.3290    3.8510 ha        1 W33      0.173000
     42 H4A1      -14.6190    5.5880    4.1010 h1        1 W33      0.073200
     43 H4A2      -14.1630    5.5930    5.8650 h1        1 W33      0.073200
     44 H5A1      -14.6410    3.1830    4.1040 h1        1 W33      0.063200
     45 H5A2      -14.1800    3.1880    5.8860 h1        1 W33      0.063200
@<TRIPOS>BOND
     1    1    2 1   
     2    1    6 1   
     3    2    3 2   
     4    3    4 1   
     5    3    5 1   
     6    4   25 1   
     7    4   26 1   
     8    4   27 1   
     9    5    6 2   
    10    5   28 1   
    11    6    7 1   
    12    7    8 1   
    13    7   29 1   
    14    7   30 1   
    15    8    9 1   
    16    8   31 1   
    17    8   32 1   
    18    9   10 1   
    19    9   33 1   
    20    9   34 1   
    21   10   11 1   
    22   10   35 1   
    23   10   36 1   
    24   11   12 1   
    25   11   37 1   
    26   11   38 1   
    27   12   13 1   
    28   13   14 ar  
    29   13   18 ar  
    30   14   15 ar  
    31   14   39 1   
    32   15   16 ar  
    33   15   40 1   
    34   16   17 ar  
    35   16   20 1   
    36   17   18 ar  
    37   17   41 1   
    38   18   19 1   
    39   20   21 2   
    40   20   24 1   
    41   21   22 1   
    42   22   23 1   
    43   22   42 1   
    44   22   43 1   
    45   23   24 1   
    46   23   44 1   
    47   23   45 1   
@<TRIPOS>SUBSTRUCTURE
     1 W33         1 TEMP              0 ****  ****    0 ROOT
