@<TRIPOS>MOLECULE
W35
   45    47     1     0     0
SMALL
bcc


@<TRIPOS>ATOM
      1 O1          0.0490    0.5810    0.0810 os        1 W35     -0.122100
      2 N2          1.3450    0.6840   -0.1250 nc        1 W35     -0.361300
      3 C3          2.0020    0.4000    1.0200 cd        1 W35      0.319600
      4 C31         3.4610    0.3990    1.2250 c3        1 W35     -0.132400
      5 C4          1.0180    0.0840    2.0590 cd        1 W35     -0.363600
      6 C5         -0.2020    0.2100    1.4280 cc        1 W35      0.264000
      7 C1C        -1.6070    0.0400    1.8200 c3        1 W35     -0.117700
      8 C2C        -2.3270    1.3730    1.9230 c3        1 W35     -0.078400
      9 C3C        -3.7830    1.1680    2.2840 c3        1 W35     -0.078400
     10 C4C        -4.4980    2.4950    2.4090 c3        1 W35     -0.086400
     11 C5C        -5.9580    2.2730    2.7630 c3        1 W35      0.128400
     12 O1B        -6.5310    3.5820    2.8850 os        1 W35     -0.326900
     13 C1B        -7.8700    3.6290    3.2040 ca        1 W35      0.152100
     14 C2B        -8.4020    4.9300    3.3140 ca        1 W35     -0.197500
     15 C3B        -9.7420    5.0920    3.6320 ca        1 W35     -0.049500
     16 C4B       -10.5640    3.9720    3.8430 ca        1 W35     -0.167900
     17 C5B       -10.0270    2.6840    3.7320 ca        1 W35     -0.049500
     18 C6B        -8.6820    2.5070    3.4120 ca        1 W35     -0.197500
     19 C2A       -11.9720    4.1510    4.1780 ce        1 W35      0.640200
     20 N3A       -12.8990    3.2570    4.4140 n2        1 W35     -0.636900
     21 C4A       -14.1470    3.9540    4.7010 c3        1 W35      0.072800
     22 C5A       -13.8130    5.4650    4.5980 c3        1 W35      0.089400
     23 O1A       -12.4050    5.4960    4.2610 os        1 W35     -0.459400
     24 H311        3.7870   -0.6120    1.5760 hc        1 W35      0.057700
     25 H312        3.7280    1.1520    2.0080 hc        1 W35      0.057700
     26 H313        4.0160    0.6470    0.2870 hc        1 W35      0.057700
     27 H4          1.2380   -0.1850    3.0850 ha        1 W35      0.173000
     28 H1C1       -1.6430   -0.4920    2.8090 hc        1 W35      0.066700
     29 H1C2       -2.1250   -0.6080    1.0610 hc        1 W35      0.066700
     30 H2C1       -1.8310    2.0120    2.6990 hc        1 W35      0.056200
     31 H2C2       -2.2490    1.9140    0.9430 hc        1 W35      0.056200
     32 H3C1       -3.8560    0.6060    3.2530 hc        1 W35      0.042700
     33 H3C2       -4.2820    0.5420    1.4980 hc        1 W35      0.042700
     34 H4C1       -4.4300    3.0650    1.4460 hc        1 W35      0.060700
     35 H4C2       -4.0150    3.1240    3.2020 hc        1 W35      0.060700
     36 H5C1       -6.4890    1.7060    1.9540 h1        1 W35      0.041700
     37 H5C2       -6.0610    1.7270    3.7370 h1        1 W35      0.041700
     38 H2B        -7.7480    5.7970    3.1450 ha        1 W35      0.147500
     39 H3B       -10.1700    6.1040    3.7210 ha        1 W35      0.157000
     40 H5B       -10.6650    1.8010    3.8960 ha        1 W35      0.157000
     41 H6B        -8.2770    1.4890    3.3290 ha        1 W35      0.147500
     42 H4A1      -14.5040    3.6790    5.7270 h1        1 W35      0.070700
     43 H4A2      -14.9280    3.6520    3.9560 h1        1 W35      0.070700
     44 H5A1      -14.3600    5.9810    3.7740 h1        1 W35      0.062700
     45 H5A2      -13.9320    6.0090    5.5640 h1        1 W35      0.062700
@<TRIPOS>BOND
     1    1    2 1   
     2    1    6 1   
     3    2    3 2   
     4    3    4 1   
     5    3    5 1   
     6    4   24 1   
     7    4   25 1   
     8    4   26 1   
     9    5    6 2   
    10    5   27 1   
    11    6    7 1   
    12    7    8 1   
    13    7   28 1   
    14    7   29 1   
    15    8    9 1   
    16    8   30 1   
    17    8   31 1   
    18    9   10 1   
    19    9   32 1   
    20    9   33 1   
    21   10   11 1   
    22   10   34 1   
    23   10   35 1   
    24   11   12 1   
    25   11   36 1   
    26   11   37 1   
    27   12   13 1   
    28   13   14 ar  
    29   13   18 ar  
    30   14   15 ar  
    31   14   38 1   
    32   15   16 ar  
    33   15   39 1   
    34   16   17 ar  
    35   16   19 1   
    36   17   18 ar  
    37   17   40 1   
    38   18   41 1   
    39   19   20 2   
    40   19   23 1   
    41   20   21 1   
    42   21   22 1   
    43   21   42 1   
    44   21   43 1   
    45   22   23 1   
    46   22   44 1   
    47   22   45 1   
@<TRIPOS>SUBSTRUCTURE
     1 W35         1 TEMP              0 ****  ****    0 ROOT
