@<TRIPOS>MOLECULE
W42
   57    59     1     0     0
SMALL
bcc


@<TRIPOS>ATOM
      1 O1D         0.0800   -0.9560    0.5930 oh        1 W42     -0.603800
      2 C2D         1.4230   -1.3150    0.3080 c3        1 W42      0.123400
      3 C3D         2.2810   -0.7850    1.4530 c3        1 W42      0.123400
      4 O4D         2.2940   -1.7950    2.4620 os        1 W42     -0.454600
      5 C5D         2.4710   -1.3170    3.7750 c3        1 W42      0.327200
      6 O6D         1.3570   -0.5190    4.1040 os        1 W42     -0.452600
      7 O1         -2.6570   -0.0890    6.0420 os        1 W42     -0.123100
      8 N2         -2.0520   -0.9910    5.2980 nc        1 W42     -0.364300
      9 C3         -0.8640   -0.4970    4.8870 cd        1 W42      0.312600
     10 C31         0.1010   -1.2030    4.0040 c3        1 W42      0.096100
     11 C4         -0.6970    0.8520    5.4290 cd        1 W42     -0.330600
     12 C5         -1.8500    1.0750    6.1520 cc        1 W42      0.252000
     13 C1C        -2.3830    2.1760    6.9640 c3        1 W42     -0.115700
     14 C2C        -3.4430    2.9650    6.2160 c3        1 W42     -0.078400
     15 C3C        -3.9990    4.0720    7.0850 c3        1 W42     -0.078400
     16 C4C        -5.0400    4.8730    6.3350 c3        1 W42     -0.085400
     17 C5C        -5.5930    5.9730    7.2230 c3        1 W42      0.131400
     18 O1B        -6.5480    6.6860    6.4090 os        1 W42     -0.329900
     19 C1B        -7.1600    7.7310    7.0770 ca        1 W42      0.129100
     20 C2B        -6.6270    9.0320    6.9960 ca        1 W42     -0.006100
     21 C3B        -7.3130   10.1100    7.5600 ca        1 W42     -0.075500
     22 C4B        -8.5300    9.8960    8.2170 ca        1 W42     -0.115900
     23 C5B        -9.0660    8.6070    8.3120 ca        1 W42     -0.075500
     24 C6B        -8.3810    7.5270    7.7480 ca        1 W42     -0.006100
     25 CL1        -9.0580    5.9760    7.8860 cl        1 W42     -0.063400
     26 CL2        -5.1510    9.3300    6.2120 cl        1 W42     -0.063400
     27 C2A        -9.2450   11.0260    8.8070 ce        1 W42      0.627200
     28 N3A       -10.3760   11.0490    9.4650 n2        1 W42     -0.619900
     29 C4A       -10.6590   12.4280    9.8430 c3        1 W42      0.069800
     30 C5A        -9.4750   13.2620    9.2870 c3        1 W42      0.090400
     31 O1A        -8.6220   12.2840    8.6430 os        1 W42     -0.456400
     32 HOD1       -0.4770   -1.4540   -0.0160 ho        1 W42      0.404000
     33 H2D1        1.7430   -0.8330   -0.6540 h1        1 W42      0.037200
     34 H2D2        1.5260   -2.4290    0.2260 h1        1 W42      0.037200
     35 H3D1        1.8550    0.1720    1.8520 h1        1 W42      0.053700
     36 H3D2        3.3360   -0.6290    1.1050 h1        1 W42      0.053700
     37 H5D1        3.3550   -0.6330    3.8790 h2        1 W42      0.065200
     38 H5D2        2.5480   -2.2400    4.4100 h2        1 W42      0.065200
     39 H311       -0.2330   -1.1460    2.9280 h1        1 W42      0.073700
     40 H312        0.2170   -2.2790    4.3040 h1        1 W42      0.073700
     41 H4          0.1670    1.4880    5.2690 ha        1 W42      0.184000
     42 H1C1       -1.5350    2.8530    7.2520 hc        1 W42      0.066200
     43 H1C2       -2.8260    1.7570    7.9100 hc        1 W42      0.066200
     44 H2C1       -4.2690    2.2730    5.9030 hc        1 W42      0.055700
     45 H2C2       -3.0000    3.4020    5.2830 hc        1 W42      0.055700
     46 H3C1       -3.1660    4.7480    7.4140 hc        1 W42      0.042200
     47 H3C2       -4.4550    3.6310    8.0110 hc        1 W42      0.042200
     48 H4C1       -5.8780    4.2070    6.0020 hc        1 W42      0.061700
     49 H4C2       -4.5920    5.3290    5.4140 hc        1 W42      0.061700
     50 H5C1       -4.7880    6.6810    7.5490 h1        1 W42      0.042200
     51 H5C2       -6.1160    5.5520    8.1200 h1        1 W42      0.042200
     52 H3B        -6.9010   11.1320    7.4900 ha        1 W42      0.175000
     53 H5B       -10.0270    8.4390    8.8290 ha        1 W42      0.175000
     54 H4A1      -10.7330   12.5050   10.9590 h1        1 W42      0.076200
     55 H4A2      -11.6360   12.7470    9.3950 h1        1 W42      0.076200
     56 H5A1       -9.7830   13.9950    8.5050 h1        1 W42      0.065700
     57 H5A2       -8.8690   13.7520   10.0850 h1        1 W42      0.065700
@<TRIPOS>BOND
     1    1    2 1   
     2    1   32 1   
     3    2    3 1   
     4    2   33 1   
     5    2   34 1   
     6    3    4 1   
     7    3   35 1   
     8    3   36 1   
     9    4    5 1   
    10    5    6 1   
    11    5   37 1   
    12    5   38 1   
    13    6   10 1   
    14    7    8 1   
    15    7   12 1   
    16    8    9 2   
    17    9   10 1   
    18    9   11 1   
    19   10   39 1   
    20   10   40 1   
    21   11   12 2   
    22   11   41 1   
    23   12   13 1   
    24   13   14 1   
    25   13   42 1   
    26   13   43 1   
    27   14   15 1   
    28   14   44 1   
    29   14   45 1   
    30   15   16 1   
    31   15   46 1   
    32   15   47 1   
    33   16   17 1   
    34   16   48 1   
    35   16   49 1   
    36   17   18 1   
    37   17   50 1   
    38   17   51 1   
    39   18   19 1   
    40   19   20 ar  
    41   19   24 ar  
    42   20   21 ar  
    43   20   26 1   
    44   21   22 ar  
    45   21   52 1   
    46   22   23 ar  
    47   22   27 1   
    48   23   24 ar  
    49   23   53 1   
    50   24   25 1   
    51   27   28 2   
    52   27   31 1   
    53   28   29 1   
    54   29   30 1   
    55   29   54 1   
    56   29   55 1   
    57   30   31 1   
    58   30   56 1   
    59   30   57 1   
@<TRIPOS>SUBSTRUCTURE
     1 W42         1 TEMP              0 ****  ****    0 ROOT
