@<TRIPOS>MOLECULE
W43
   54    56     1     0     0
SMALL
bcc


@<TRIPOS>ATOM
      1 O1          0.0480    0.4500    0.0550 os        1 W43     -0.122100
      2 N2          1.3370    0.5180   -0.2040 nc        1 W43     -0.361300
      3 C3          2.0320    0.3280    0.9380 cd        1 W43      0.319600
      4 C31         3.4970    0.3260    1.0910 c3        1 W43     -0.132400
      5 C4          1.0820    0.1180    2.0340 cd        1 W43     -0.364600
      6 C5         -0.1580    0.2030    1.4370 cc        1 W43      0.265000
      7 C1C        -1.5500    0.0880    1.8920 c3        1 W43     -0.117700
      8 C2C        -2.2440    1.4380    1.9300 c3        1 W43     -0.078400
      9 C3C        -3.6870    1.2870    2.3590 c3        1 W43     -0.079400
     10 C4C        -4.3800    2.6320    2.4170 c3        1 W43     -0.078400
     11 C5C        -5.8270    2.4830    2.8360 c3        1 W43     -0.078400
     12 C6C        -6.5110    3.8300    2.9060 c3        1 W43     -0.086400
     13 C7C        -7.9630    3.6600    3.3200 c3        1 W43      0.128400
     14 O1B        -8.5020    4.9890    3.3770 os        1 W43     -0.313900
     15 C1B        -9.8250    5.0950    3.7390 ca        1 W43      0.162100
     16 C2B       -10.6440    3.9960    4.0390 ca        1 W43     -0.217000
     17 C3B       -11.9730    4.1930    4.3960 ca        1 W43     -0.048000
     18 C4B       -12.5040    5.4870    4.4590 ca        1 W43     -0.158900
     19 C5B       -11.6930    6.5900    4.1610 ca        1 W43     -0.049000
     20 C6B       -10.3570    6.4040    3.8010 ca        1 W43     -0.030600
     21 CL1        -9.4140    7.7710    3.4490 cl        1 W43     -0.067400
     22 C2A       -13.9010    5.6900    4.8340 ce        1 W43      0.639200
     23 N3A       -14.5780    6.8010    4.9660 n2        1 W43     -0.626900
     24 C4A       -15.9470    6.4640    5.3790 c3        1 W43      0.088500
     25 CM1       -17.0250    6.9850    4.4460 c3        1 W43     -0.086100
     26 C5A       -15.9670    4.9070    5.4610 c3        1 W43      0.089400
     27 O1A       -14.6250    4.5060    5.1040 os        1 W43     -0.459400
     28 H311        4.0210    0.4950    0.1170 hc        1 W43      0.057700
     29 H312        3.8270   -0.6590    1.5080 hc        1 W43      0.057700
     30 H313        3.7980    1.1340    1.8040 hc        1 W43      0.057700
     31 H4          1.3360   -0.0620    3.0720 ha        1 W43      0.173000
     32 H1C1       -2.1080   -0.6000    1.1990 hc        1 W43      0.066700
     33 H1C2       -1.5570   -0.3750    2.9150 hc        1 W43      0.066700
     34 H2C1       -2.1950    1.9090    0.9130 hc        1 W43      0.053700
     35 H2C2       -1.7060    2.1190    2.6410 hc        1 W43      0.053700
     36 H3C1       -4.2260    0.6170    1.6390 hc        1 W43      0.041200
     37 H3C2       -3.7330    0.7960    3.3670 hc        1 W43      0.041200
     38 H4C1       -4.3280    3.1260    1.4120 hc        1 W43      0.045700
     39 H4C2       -3.8450    3.3000    3.1430 hc        1 W43      0.045700
     40 H5C1       -5.8800    1.9790    3.8370 hc        1 W43      0.041200
     41 H5C2       -6.3640    1.8230    2.1040 hc        1 W43      0.041200
     42 H6C1       -5.9900    4.4940    3.6440 hc        1 W43      0.061700
     43 H6C2       -6.4660    4.3430    1.9100 hc        1 W43      0.061700
     44 H7C1       -8.5310    3.0570    2.5640 h1        1 W43      0.042200
     45 H7C2       -8.0430    3.1790    4.3300 h1        1 W43      0.042200
     46 H2B       -10.2480    2.9720    3.9950 ha        1 W43      0.145000
     47 H3B       -12.6150    3.3280    4.6310 ha        1 W43      0.158000
     48 H5B       -12.1070    7.6120    4.2090 ha        1 W43      0.172000
     49 H4A       -16.1100    6.9070    6.4030 h1        1 W43      0.075700
     50 HM11      -16.9750    8.0980    4.3760 hc        1 W43      0.045700
     51 HM12      -16.9120    6.5600    3.4200 hc        1 W43      0.045700
     52 HM13      -18.0250    6.6930    4.8470 hc        1 W43      0.045700
     53 H5A1      -16.6600    4.4390    4.7220 h1        1 W43      0.063700
     54 H5A2      -16.1590    4.5290    6.4930 h1        1 W43      0.063700
@<TRIPOS>BOND
     1    1    2 1
     2    1    6 1
     3    2    3 2
     4    3    4 1
     5    3    5 1
     6    4   28 1
     7    4   29 1
     8    4   30 1
     9    5    6 2
    10    5   31 1
    11    6    7 1
    12    7    8 1
    13    7   32 1
    14    7   33 1
    15    8    9 1
    16    8   34 1
    17    8   35 1
    18    9   10 1
    19    9   36 1
    20    9   37 1
    21   10   11 1
    22   10   38 1
    23   10   39 1
    24   11   12 1
    25   11   40 1
    26   11   41 1
    27   12   13 1
    28   12   42 1
    29   12   43 1
    30   13   14 1
    31   13   44 1
    32   13   45 1
    33   14   15 1
    34   15   16 ar
    35   15   20 ar
    36   16   17 ar
    37   16   46 1
    38   17   18 ar
    39   17   47 1
    40   18   19 ar
    41   18   22 1
    42   19   20 ar
    43   19   48 1
    44   20   21 1
    45   22   23 2
    46   22   27 1
    47   23   24 1
    48   24   25 1
    49   24   26 1
    50   24   49 1
    51   25   50 1
    52   25   51 1
    53   25   52 1
    54   26   27 1
    55   26   53 1
    56   26   54 1
@<TRIPOS>SUBSTRUCTURE
     1 W43         1 TEMP              0 ****  ****    0 ROOT
