@<TRIPOS>MOLECULE
molecule
   39    40     1     0     0
SMALL
bcc


@<TRIPOS>ATOM
      1 C02          0.0000     0.0000     0.0000 c          1 W45       0.673100
      2 C03          1.5070     0.0000     0.0000 c3         1 W45      -0.059300
      3 C06         -2.1390     0.0010     1.1680 c3         1 W45       0.115000
      4 C07         -2.6490     0.0010     2.6100 c3         1 W45      -0.100400
      5 C08         -4.1790     0.0010     2.6100 c3         1 W45      -0.078400
      6 C09         -4.6890     0.0010     4.0520 c3         1 W45      -0.106400
      7 C10         -6.2190     0.0020     4.0530 c3         1 W45       0.048300
      8 C12         -7.0640    -1.1130     6.1430 cc         1 W45      -0.091100
      9 C13         -7.4590    -0.7640     7.3770 cd         1 W45      -0.195200
     10 C14         -7.3530     0.6940     7.4650 ca         1 W45      -0.098800
     11 C15         -7.6140     1.6260     8.4710 ca         1 W45      -0.063000
     12 C16         -7.4050     2.9660     8.2300 ca         1 W45       0.000400
     13 C18         -6.9370     3.3920     6.9920 ca         1 W45       0.049400
     14 C20         -6.6740     2.4830     5.9900 ca         1 W45      -0.131000
     15 C21         -6.8780     1.1260     6.2130 ca         1 W45      -0.029200
     16 N05         -0.6740     0.0000     1.1680 ns         1 W45      -0.589900
     17 N11         -6.7080     0.0020     5.4340 na         1 W45      -0.070400
     18 O01         -0.6070     0.0050    -1.0500 o          1 W45      -0.574100
     19 S04          2.1110    -0.0010    -1.7100 sh         1 W45      -0.331900
     20 Cl1         -6.6800     5.0850     6.7070 cl         1 W45      -0.090400
     21 H1           1.8680    -0.8840     0.5110 h1         1 W45       0.071200
     22 H2           1.8680     0.8850     0.5100 h1         1 W45       0.071200
     23 H3          -2.5010    -0.8840     0.6570 h1         1 W45       0.056200
     24 H4          -2.5000     0.8850     0.6570 h1         1 W45       0.056200
     25 H5          -2.2880     0.8850     3.1200 hc         1 W45       0.048200
     26 H6          -2.2880    -0.8840     3.1200 hc         1 W45       0.048200
     27 H7          -4.5410    -0.8840     2.1000 hc         1 W45       0.048700
     28 H8          -4.5400     0.8850     2.1000 hc         1 W45       0.048700
     29 H9          -4.3290    -0.8840     4.5630 hc         1 W45       0.056700
     30 H10         -4.3270     0.8850     4.5630 hc         1 W45       0.056700
     31 H11         -6.5800     0.8870     3.5430 h1         1 W45       0.062700
     32 H12         -6.5810    -0.8820     3.5420 h1         1 W45       0.062700
     33 H13         -7.0330    -2.1280     5.7630 h4         1 W45       0.169000
     34 H14         -7.7970    -1.4340     8.1580 ha         1 W45       0.159000
     35 H15         -7.9790     1.2960     9.4360 ha         1 W45       0.151000
     36 H16         -6.3090     2.8260     5.0290 ha         1 W45       0.144000
     37 H17         -0.1740    -0.0290     2.0350 hn         1 W45       0.312500
     38 H18          3.4390    -0.0030    -1.7100 hs         1 W45       0.193800
     39 Cl2         -7.7290     4.1290     9.4780 cl         1 W45      -0.093400
@<TRIPOS>BOND
     1    20    13 1
     2    39    12 1
     3    13    12 ar
     4    13    14 ar
     5    12    11 ar
     6     2    19 1
     7     2     1 1
     8    14    15 ar
     9    18     1 2
    10    11    10 ar
    11     1    16 1
    12    15    10 ar
    13    15    17 1
    14    10     9 1
    15    16     3 1
    16     4     5 1
    17     4     3 1
    18     5     6 1
    19     6     7 1
    20    17     7 1
    21    17     8 1
    22     9     8 2
    23     2    21 1
    24     2    22 1
    25     3    23 1
    26     3    24 1
    27     4    25 1
    28     4    26 1
    29     5    27 1
    30     5    28 1
    31     6    29 1
    32     6    30 1
    33     7    31 1
    34     7    32 1
    35     8    33 1
    36     9    34 1
    37    11    35 1
    38    14    36 1
    39    16    37 1
    40    19    38 1
@<TRIPOS>SUBSTRUCTURE
     1 W45         1 TEMP              0 ****  ****    0 ROOT
