@<TRIPOS>MOLECULE
W45
   39    40     1     0     0
SMALL
bcc


@<TRIPOS>ATOM
      1 C02          0.0000     0.0000     0.0000 c          1 W45       0.588100
      2 C03          1.5070     0.0000     0.0000 c3         1 W45       0.020700
      3 C06         -2.1390     0.0010     1.1680 c3         1 W45       0.052000
      4 C07         -2.6490     0.0010     2.6100 c3         1 W45      -0.041400
      5 C08         -4.1790     0.0010     2.6100 c3         1 W45      -0.017400
      6 C09         -4.6890     0.0010     4.0520 c3         1 W45      -0.051400
      7 C10         -6.2190     0.0020     4.0530 c3         1 W45      -0.041700
      8 C12         -7.0640    -1.1130     6.1430 cc         1 W45      -0.246100
      9 C13         -7.4590    -0.7640     7.3770 cd         1 W45      -0.156200
     10 C14         -7.3530     0.6940     7.4650 ca         1 W45      -0.099800
     11 C15         -7.6140     1.6260     8.4710 ca         1 W45      -0.027000
     12 C16         -7.4050     2.9660     8.2300 ca         1 W45      -0.068600
     13 C18         -6.9370     3.3920     6.9920 ca         1 W45      -0.020600
     14 C20         -6.6740     2.4830     5.9900 ca         1 W45      -0.096000
     15 C21         -6.8780     1.1260     6.2130 ca         1 W45      -0.200200
     16 N05         -0.6740     0.0000     1.1680 ns         1 W45      -0.203900
     17 N11         -6.7080     0.0020     5.4340 na         1 W45       0.394600
     18 O01         -0.6070     0.0050    -1.0500 o          1 W45      -0.605100
     19 S04          2.1110    -0.0010    -1.7100 sh         1 W45      -0.338900
     20 Cl1         -6.6800     5.0850     6.7070 cl         1 W45      -0.013400
     21 H1           1.8680    -0.8840     0.5110 h1         1 W45       0.039700
     22 H2           1.8680     0.8850     0.5100 h1         1 W45       0.039700
     23 H3          -2.5010    -0.8840     0.6570 h1         1 W45       0.029200
     24 H4          -2.5000     0.8850     0.6570 h1         1 W45       0.029200
     25 H5          -2.2880     0.8850     3.1200 hc         1 W45       0.018700
     26 H6          -2.2880    -0.8840     3.1200 hc         1 W45       0.018700
     27 H7          -4.5410    -0.8840     2.1000 hc         1 W45       0.020700
     28 H8          -4.5400     0.8850     2.1000 hc         1 W45       0.020700
     29 H9          -4.3290    -0.8840     4.5630 hc         1 W45       0.026700
     30 H10         -4.3270     0.8850     4.5630 hc         1 W45       0.026700
     31 H11         -6.5800     0.8870     3.5430 h1         1 W45       0.035200
     32 H12         -6.5810    -0.8820     3.5420 h1         1 W45       0.035200
     33 H13         -7.0330    -2.1280     5.7630 h4         1 W45       0.142000
     34 H14         -7.7970    -1.4340     8.1580 ha         1 W45       0.132000
     35 H15         -7.9790     1.2960     9.4360 ha         1 W45       0.116000
     36 H16         -6.3090     2.8260     5.0290 ha         1 W45       0.115000
     37 H17         -0.1740    -0.0290     2.0350 hn         1 W45       0.172500
     38 H18          3.4390    -0.0030    -1.7100 hs         1 W45       0.169800
     39 Cl2         -7.7290     4.1290     9.4780 cl         1 W45      -0.013400
@<TRIPOS>BOND
     1     1     2 1   
     2     1    16 1   
     3     1    18 2   
     4     2    19 1   
     5     2    21 1   
     6     2    22 1   
     7     3     4 1   
     8     3    16 1   
     9     3    23 1   
    10     3    24 1   
    11     4     5 1   
    12     4    25 1   
    13     4    26 1   
    14     5     6 1   
    15     5    27 1   
    16     5    28 1   
    17     6     7 1   
    18     6    29 1   
    19     6    30 1   
    20     7    17 1   
    21     7    31 1   
    22     7    32 1   
    23     8     9 2   
    24     8    17 1   
    25     8    33 1   
    26     9    10 1   
    27     9    34 1   
    28    10    11 ar  
    29    10    15 ar  
    30    11    12 ar  
    31    11    35 1   
    32    12    13 ar  
    33    12    39 1   
    34    13    14 ar  
    35    13    20 1   
    36    14    15 ar  
    37    14    36 1   
    38    15    17 1   
    39    16    37 1   
    40    19    38 1   
@<TRIPOS>SUBSTRUCTURE
     1 W45         1 TEMP              0 ****  ****    0 ROOT
