@<TRIPOS>MOLECULE
W4N
   38    39     1     0     0
SMALL
bcc


@<TRIPOS>ATOM
      1 CAK         0.1730   -0.4680    0.1760 ca        1 W4N     -0.123000
      2 CAI         1.5630   -0.5060    0.2700 ca        1 W4N     -0.140000
      3 CAH         2.1990   -0.0860    1.4390 ca        1 W4N     -0.146000
      4 CAJ         1.4380    0.3690    2.5150 ca        1 W4N     -0.140000
      5 CAL         0.0470    0.4080    2.4230 ca        1 W4N     -0.123000
      6 CAQ        -0.5980   -0.0090    1.2520 ca        1 W4N     -0.060300
      7 CAM        -2.0810    0.0680    1.1440 c3        1 W4N     -0.043100
      8 CAR        -2.7390   -1.2980    0.9400 c3        1 W4N      0.212300
      9 OAC        -2.4230   -1.7110   -0.3900 oh        1 W4N     -0.620800
     10 CAP        -4.2230   -1.2960    1.1700 c2        1 W4N     -0.206400
     11 CAG        -4.9470   -0.2310    1.5400 c2        1 W4N     -0.081200
     12 CAU        -6.4190   -0.2380    1.8260 c3        1 W4N      0.038000
     13 CAO        -7.1100    0.7900    0.8450 c         1 W4N      0.908600
     14 OAB        -7.2600    1.9540    1.3110 o         1 W4N     -0.813800
     15 OAA        -7.4640    0.3960   -0.2920 o         1 W4N     -0.813800
     16 OAF        -6.5970    0.1910    3.1750 oh        1 W4N     -0.634800
     17 CAN        -7.0790   -1.6080    1.6910 c3        1 W4N     -0.097400
     18 CAS        -6.1040   -2.7510    1.9080 c3        1 W4N      0.109100
     19 OAD        -6.7100   -4.0230    1.7090 oh        1 W4N     -0.626800
     20 CAT        -4.9100   -2.6110    0.9460 c3        1 W4N      0.153300
     21 OAE        -3.9830   -3.6820    1.1110 oh        1 W4N     -0.628800
     22 HAK        -0.3390   -0.8120   -0.7390 ha        1 W4N      0.144500
     23 HAI         2.1590   -0.8700   -0.5790 ha        1 W4N      0.119000
     24 HAH         3.2940   -0.1160    1.5120 ha        1 W4N      0.116000
     25 HAJ         1.9340    0.6990    3.4380 ha        1 W4N      0.119000
     26 HAL        -0.5470    0.7670    3.2760 ha        1 W4N      0.144500
     27 HAM1       -2.3550    0.7320    0.2810 hc        1 W4N      0.066700
     28 HAM2       -2.4990    0.5210    2.0820 hc        1 W4N      0.066700
     29 HAR        -2.2840   -2.0440    1.6580 h1        1 W4N      0.045700
     30 HAC        -2.8750   -2.5510   -0.5320 ho        1 W4N      0.413000
     31 HAG        -4.4970    0.7680    1.6670 ha        1 W4N      0.132000
     32 HAT        -5.2840   -2.6540   -0.1200 h1        1 W4N      0.047700
     33 HAF        -6.8530    1.1280    3.1410 ho        1 W4N      0.429000
     34 HAN1       -7.9110   -1.6880    2.4360 hc        1 W4N      0.068200
     35 HAN2       -7.5200   -1.6810    0.6590 hc        1 W4N      0.068200
     36 HAS        -5.7390   -2.7810    2.9710 h1        1 W4N      0.084700
     37 HAD        -7.2380   -3.9650    0.9040 ho        1 W4N      0.399000
     38 HAE        -4.4980   -4.4510    1.3900 ho        1 W4N      0.413000
@<TRIPOS>BOND
     1    1    2 ar  
     2    1    6 ar  
     3    1   22 1   
     4    2    3 ar  
     5    2   23 1   
     6    3    4 ar  
     7    3   24 1   
     8    4    5 ar  
     9    4   25 1   
    10    5    6 ar  
    11    5   26 1   
    12    6    7 1   
    13    7    8 1   
    14    7   27 1   
    15    7   28 1   
    16    8    9 1   
    17    8   10 1   
    18    8   29 1   
    19    9   30 1   
    20   10   11 2   
    21   10   20 1   
    22   11   12 1   
    23   11   31 1   
    24   12   13 1   
    25   12   16 1   
    26   12   17 1   
    27   13   14 1   
    28   13   15 1   
    29   16   33 1   
    30   17   18 1   
    31   17   34 1   
    32   17   35 1   
    33   18   19 1   
    34   18   20 1   
    35   18   36 1   
    36   19   37 1   
    37   20   21 1   
    38   20   32 1   
    39   21   38 1   
@<TRIPOS>SUBSTRUCTURE
     1 W4N         1 TEMP              0 ****  ****    0 ROOT
