@<TRIPOS>MOLECULE
molecule
   38    39     1     0     0
SMALL
bcc


@<TRIPOS>ATOM
      1 CAK          0.0000     0.0000     0.0000 ca         1 W4N      -0.119500
      2 CAI          1.3820     0.0000     0.0000 ca         1 W4N      -0.137000
      3 CAH          2.0730     0.0000     1.1970 ca         1 W4N      -0.145000
      4 CAJ          1.3820     0.0020     2.3950 ca         1 W4N      -0.137000
      5 CAL         -0.0010     0.0030     2.3950 ca         1 W4N      -0.119500
      6 CAQ         -0.6920     0.0010     1.1970 ca         1 W4N      -0.068300
      7 CAM         -2.1990     0.0010     1.1970 c3         1 W4N      -0.053100
      8 CAR         -2.7090    -1.4410     1.1980 c3         1 W4N       0.202300
      9 OAC         -2.3320    -2.0810    -0.0230 oh         1 W4N      -0.606800
     10 CAP         -4.2120    -1.4420     1.3210 c2         1 W4N      -0.179400
     11 CAG         -4.8080    -0.3040     1.4740 c2         1 W4N      -0.074200
     12 CAU         -6.2930    -0.1470     1.6200 c3         1 W4N       0.076000
     13 CAO         -6.7560     1.0240     0.7930 c          1 W4N       0.867600
     14 OAB         -6.7020     2.2670     1.2980 o          1 W4N      -0.826800
     15 OAA         -7.1750     0.8450    -0.3270 o          1 W4N      -0.826800
     16 OAF         -6.6120     0.0890     2.9940 oh         1 W4N      -0.623800
     17 CAN         -7.0070    -1.4150     1.1480 c3         1 W4N      -0.091400
     18 CAS         -6.3410    -2.6240     1.8160 c3         1 W4N       0.116100
     19 OAD         -7.0880    -3.8070     1.5250 oh         1 W4N      -0.626800
     20 CAT         -4.9220    -2.7620     1.2550 c3         1 W4N       0.198300
     21 OAE         -4.2020    -3.7270     2.0260 oh         1 W4N      -0.623800
     22 HAK         -0.5410    -0.0010    -0.9380 ha         1 W4N       0.138000
     23 HAI          1.9240    -0.0010    -0.9380 ha         1 W4N       0.119000
     24 HAH          3.1560    -0.0000     1.1980 ha         1 W4N       0.115000
     25 HAJ          1.9230     0.0030     3.3330 ha         1 W4N       0.119000
     26 HAL         -0.5420     0.0040     3.3330 ha         1 W4N       0.138000
     27 HAM1        -2.5600     0.5120     2.0820 hc         1 W4N       0.075200
     28 HAM2        -2.5600     0.5120     0.3130 hc         1 W4N       0.075200
     29 HAR         -2.2770    -1.9760     2.0350 h1         1 W4N       0.043700
     30 HAC         -1.9210    -2.9080     0.1700 ho         1 W4N       0.392000
     31 HAG         -4.1980     0.5910     1.4970 ha         1 W4N       0.143000
     32 HAT         -4.9760    -3.0870     0.2230 h1         1 W4N       0.052700
     33 HAF         -7.2900     0.7410     3.0520 ho         1 W4N       0.419000
     34 HAN1        -6.9200    -1.5020     0.0710 hc         1 W4N       0.064200
     35 HAN2        -8.0510    -1.3730     1.4320 hc         1 W4N       0.064200
     36 HAS         -6.2950    -2.4690     2.8870 h1         1 W4N       0.057700
     37 HAD         -7.5480    -4.0860     2.2990 ho         1 W4N       0.392000
     38 HAE         -4.2800    -4.5750     1.6200 ho         1 W4N       0.393000
@<TRIPOS>BOND
     1     1     2 ar
     2     1     6 ar
     3     2     3 ar
     4     3     4 ar
     5     4     5 ar
     6     5     6 ar
     7     6     7 1
     8     7     8 1
     9     8     9 1
    10     8    10 1
    11    10    11 2
    12    10    20 1
    13    11    12 1
    14    12    13 1
    15    12    16 1
    16    12    17 1
    17    13    14 1
    18    13    15 1
    19    17    18 1
    20    18    19 1
    21    18    20 1
    22    20    21 1
    23     1    22 1
    24     2    23 1
    25     3    24 1
    26     4    25 1
    27     5    26 1
    28     7    27 1
    29     7    28 1
    30     8    29 1
    31     9    30 1
    32    11    31 1
    33    20    32 1
    34    16    33 1
    35    17    34 1
    36    17    35 1
    37    18    36 1
    38    19    37 1
    39    21    38 1
@<TRIPOS>SUBSTRUCTURE
     1 W4N         1 TEMP              0 ****  ****    0 ROOT
