@<TRIPOS>MOLECULE
W54
   45    47     1     0     0
SMALL
bcc


@<TRIPOS>ATOM
      1 C31        -0.0700   -0.6130   -0.2430 c3        1 W54     -0.132400
      2 C3          1.3150   -0.1290   -0.0990 cc        1 W54      0.320600
      3 C4          2.2830   -0.6600    0.8640 cc        1 W54     -0.365600
      4 C5          3.4270    0.0790    0.6470 cd        1 W54      0.267000
      5 O1          3.1480    1.0020   -0.3950 os        1 W54     -0.124100
      6 N2          1.9060    0.8550   -0.8080 nd        1 W54     -0.362300
      7 C1C         4.7760    0.1420    1.2230 c3        1 W54     -0.120700
      8 C2C         5.2500   -1.2160    1.7040 c3        1 W54     -0.076400
      9 C3C         6.6160   -1.1080    2.3480 c3        1 W54     -0.078400
     10 C4C         7.0920   -2.4620    2.8270 c3        1 W54     -0.085400
     11 C5C         8.4620   -2.3380    3.4690 c3        1 W54      0.131400
     12 O1B         8.8110   -3.6700    3.8990 os        1 W54     -0.330900
     13 C1B        10.0500   -3.7380    4.5100 ca        1 W54      0.127100
     14 C2B        10.1580   -3.6200    5.9090 ca        1 W54     -0.005100
     15 CL1         8.8070   -3.2440    6.8660 cl        1 W54     -0.063400
     16 C3B        11.3890   -3.8190    6.5390 ca        1 W54     -0.075500
     17 C4B        12.5220   -4.1260    5.7760 ca        1 W54     -0.114900
     18 C5B        12.4290   -4.2370    4.3840 ca        1 W54     -0.075500
     19 C6B        11.1980   -4.0390    3.7520 ca        1 W54     -0.005100
     20 CL2        11.1230   -4.1770    2.0620 cl        1 W54     -0.063400
     21 C2A        13.8090   -4.3310    6.4380 ce        1 W54      0.627200
     22 N3A        14.9790   -4.6110    5.9230 n2        1 W54     -0.618900
     23 C4A        15.9440   -4.7170    7.0100 c3        1 W54      0.069800
     24 C5A        15.1400   -4.4450    8.3080 c3        1 W54      0.090400
     25 O1A        13.7880   -4.2080    7.8460 os        1 W54     -0.456400
     26 H311       -0.6240   -0.0640   -1.0440 hc        1 W54      0.057367
     27 H312       -0.0590   -1.7020   -0.4990 hc        1 W54      0.057367
     28 H313       -0.6140   -0.4790    0.7250 hc        1 W54      0.057367
     29 H4          2.1040   -1.4590    1.5750 ha        1 W54      0.173000
     30 H1C1        4.7630    0.8680    2.0840 hc        1 W54      0.071200
     31 H1C2        5.4920    0.5490    0.4570 hc        1 W54      0.071200
     32 H2C1        4.5150   -1.6330    2.4410 hc        1 W54      0.050700
     33 H2C2        5.2950   -1.9280    0.8380 hc        1 W54      0.050700
     34 H3C1        6.5710   -0.3950    3.2130 hc        1 W54      0.044700
     35 H3C2        7.3490   -0.6890    1.6090 hc        1 W54      0.044700
     36 H4C1        7.1470   -3.1820    1.9690 hc        1 W54      0.060200
     37 H4C2        6.3700   -2.8870    3.5720 hc        1 W54      0.060200
     38 H5C1        9.2280   -1.9760    2.7340 h1        1 W54      0.043200
     39 H5C2        8.4380   -1.6580    4.3600 h1        1 W54      0.043200
     40 H3B        11.4740   -3.7350    7.6360 ha        1 W54      0.175000
     41 H5B        13.3230   -4.4800    3.7840 ha        1 W54      0.175000
     42 H4A1       16.7610   -3.9630    6.8630 h1        1 W54      0.076200
     43 H4A2       16.3980   -5.7420    7.0120 h1        1 W54      0.076200
     44 H5A1       15.4690   -3.5240    8.8450 h1        1 W54      0.066200
     45 H5A2       15.1030   -5.3230    8.9950 h1        1 W54      0.066200
@<TRIPOS>BOND
     1    1    2 1
     2    1   26 1
     3    1   27 1
     4    1   28 1
     5    2    3 1
     6    2    6 2
     7    3    4 2
     8    3   29 1
     9    4    5 1
    10    4    7 1
    11    5    6 1
    12    7    8 1
    13    7   30 1
    14    7   31 1
    15    8    9 1
    16    8   32 1
    17    8   33 1
    18    9   10 1
    19    9   34 1
    20    9   35 1
    21   10   11 1
    22   10   36 1
    23   10   37 1
    24   11   12 1
    25   11   38 1
    26   11   39 1
    27   12   13 1
    28   13   14 ar
    29   13   19 ar
    30   14   15 1
    31   14   16 ar
    32   16   17 ar
    33   16   40 1
    34   17   18 ar
    35   17   21 1
    36   18   19 ar
    37   18   41 1
    38   19   20 1
    39   21   22 2
    40   21   25 1
    41   22   23 1
    42   23   24 1
    43   23   42 1
    44   23   43 1
    45   24   25 1
    46   24   44 1
    47   24   45 1
@<TRIPOS>SUBSTRUCTURE
     1 W54         1 TEMP              0 ****  ****    0 ROOT
