@<TRIPOS>MOLECULE
W56
   48    50     1     0     0
SMALL
bcc


@<TRIPOS>ATOM
      1 O1          0.0740    0.5440    0.0390 os        1 W56     -0.122100
      2 N2          1.3650    0.6690   -0.1960 nc        1 W56     -0.361300
      3 C3          2.0490    0.4350    0.9440 cd        1 W56      0.319600
      4 C31         3.5110    0.4720    1.1200 c3        1 W56     -0.132400
      5 C4          1.0920    0.1310    2.0110 cd        1 W56     -0.363600
      6 C5         -0.1430    0.2100    1.4000 cc        1 W56      0.264000
      7 C1C        -1.5350    0.0220    1.8250 c3        1 W56     -0.117700
      8 C2C        -2.2810    1.3420    1.9080 c3        1 W56     -0.078400
      9 C3C        -3.7250    1.1170    2.3040 c3        1 W56     -0.078400
     10 C4C        -4.4640    2.4330    2.4090 c3        1 W56     -0.086400
     11 C5C        -5.9120    2.1900    2.7980 c3        1 W56      0.128400
     12 O1B        -6.5100    3.4900    2.9000 os        1 W56     -0.327900
     13 C1B        -7.8430    3.5190    3.2450 ca        1 W56      0.152100
     14 C2B        -8.3990    4.8110    3.3350 ca        1 W56     -0.197500
     15 C3B        -9.7350    4.9540    3.6770 ca        1 W56     -0.049500
     16 C4B       -10.5290    3.8240    3.9330 ca        1 W56     -0.168900
     17 C5B        -9.9680    2.5440    3.8420 ca        1 W56     -0.049500
     18 C6B        -8.6260    2.3860    3.4990 ca        1 W56     -0.197500
     19 C2A       -11.9340    3.9830    4.2940 ce        1 W56      0.642200
     20 N3A       -12.8370    3.0750    4.5580 n2        1 W56     -0.634900
     21 C4A       -14.1080    3.7530    4.8480 c3        1 W56      0.089500
     22 CM1       -14.6930    3.4240    6.2090 c3        1 W56     -0.086100
     23 C5A       -13.7880    5.2740    4.7170 c3        1 W56      0.089400
     24 O1A       -12.3880    5.3210    4.3590 os        1 W56     -0.458400
     25 H311        3.8660   -0.5170    1.5030 hc        1 W56      0.057700
     26 H312        4.0430    0.6960    0.1620 hc        1 W56      0.057700
     27 H313        3.7760    1.2610    1.8680 hc        1 W56      0.057700
     28 H4          1.3370   -0.1020    3.0400 ha        1 W56      0.173000
     29 H1C1       -1.5410   -0.4840    2.8280 hc        1 W56      0.066700
     30 H1C2       -2.0550   -0.6560    1.0940 hc        1 W56      0.066700
     31 H2C1       -2.2340    1.8590    0.9130 hc        1 W56      0.056200
     32 H2C2       -1.7830    2.0120    2.6570 hc        1 W56      0.056200
     33 H3C1       -3.7670    0.5790    3.2880 hc        1 W56      0.042700
     34 H3C2       -4.2260    0.4610    1.5440 hc        1 W56      0.042700
     35 H4C1       -3.9790    3.0920    3.1760 hc        1 W56      0.060700
     36 H4C2       -4.4280    2.9790    1.4310 hc        1 W56      0.060700
     37 H5C1       -5.9840    1.6670    3.7880 h1        1 W56      0.041700
     38 H5C2       -6.4480    1.5920    2.0150 h1        1 W56      0.041700
     39 H2B        -7.7660    5.6870    3.1310 ha        1 W56      0.147500
     40 H3B       -10.1810    5.9600    3.7500 ha        1 W56      0.157000
     41 H5B       -10.5840    1.6530    4.0420 ha        1 W56      0.157000
     42 H6B        -8.2030    1.3750    3.4320 ha        1 W56      0.147500
     43 H4A       -14.8450    3.4450    4.0530 h1        1 W56      0.073700
     44 HM11      -14.0010    3.7270    7.0310 hc        1 W56      0.044367
     45 HM12      -14.8890    2.3290    6.2960 hc        1 W56      0.044367
     46 HM13      -15.6570    3.9740    6.3320 hc        1 W56      0.044367
     47 H5A1      -13.9030    5.8300    5.6770 h1        1 W56      0.062700
     48 H5A2      -14.3550    5.7670    3.8920 h1        1 W56      0.062700
@<TRIPOS>BOND
     1    1    2 1
     2    1    6 1
     3    2    3 2
     4    3    4 1
     5    3    5 1
     6    4   25 1
     7    4   26 1
     8    4   27 1
     9    5    6 2
    10    5   28 1
    11    6    7 1
    12    7    8 1
    13    7   29 1
    14    7   30 1
    15    8    9 1
    16    8   31 1
    17    8   32 1
    18    9   10 1
    19    9   33 1
    20    9   34 1
    21   10   11 1
    22   10   35 1
    23   10   36 1
    24   11   12 1
    25   11   37 1
    26   11   38 1
    27   12   13 1
    28   13   14 ar
    29   13   18 ar
    30   14   15 ar
    31   14   39 1
    32   15   16 ar
    33   15   40 1
    34   16   17 ar
    35   16   19 1
    36   17   18 ar
    37   17   41 1
    38   18   42 1
    39   19   20 2
    40   19   24 1
    41   20   21 1
    42   21   22 1
    43   21   23 1
    44   21   43 1
    45   22   44 1
    46   22   45 1
    47   22   46 1
    48   23   24 1
    49   23   47 1
    50   23   48 1
@<TRIPOS>SUBSTRUCTURE
     1 W56         1 TEMP              0 ****  ****    0 ROOT
