@<TRIPOS>MOLECULE
W59
   57    59     1     0     0
SMALL
bcc


@<TRIPOS>ATOM
      1 O1          0.2930    0.9580   -0.0460 os        1 W59     -0.122100
      2 N2          1.5980    1.0490   -0.2030 nc        1 W59     -0.362300
      3 C3          2.2130    0.5460    0.8880 cd        1 W59      0.319600
      4 C31         3.6660    0.4560    1.1210 c3        1 W59     -0.132400
      5 C4          1.1920    0.0900    1.8340 cd        1 W59     -0.364600
      6 C5         -0.0060    0.3670    1.2090 cc        1 W59      0.265000
      7 C1C        -1.4250    0.1830    1.5360 c3        1 W59     -0.117700
      8 C2C        -2.1100    1.5030    1.8430 c3        1 W59     -0.078400
      9 C3C        -3.5800    1.2900    2.1350 c3        1 W59     -0.079400
     10 C4C        -4.2660    2.6010    2.4540 c3        1 W59     -0.078400
     11 C5C        -5.7370    2.3920    2.7430 c3        1 W59     -0.078400
     12 C6C        -6.4170    3.7040    3.0670 c3        1 W59     -0.086400
     13 C7C        -7.8910    3.4740    3.3530 c3        1 W59      0.128400
     14 O1B        -8.4330    4.7670    3.6580 os        1 W59     -0.327900
     15 C1B        -9.7770    4.8040    3.9560 ca        1 W59      0.153100
     16 C2B       -10.2780    6.0890    4.2510 ca        1 W59     -0.198000
     17 C3B       -11.6200    6.2400    4.5660 ca        1 W59     -0.049500
     18 C4B       -12.4740    5.1250    4.5920 ca        1 W59     -0.168900
     19 C5B       -11.9680    3.8530    4.2980 ca        1 W59     -0.049500
     20 C6B       -10.6210    3.6870    3.9790 ca        1 W59     -0.198000
     21 C2A       -13.8850    5.2920    4.9260 ce        1 W59      0.641200
     22 N3A       -14.8390    4.4000    4.9980 n2        1 W59     -0.633900
     23 C4A       -16.0890    5.0820    5.3560 c3        1 W59      0.088500
     24 CM1       -16.7530    4.5630    6.6280 c3        1 W59     -0.066400
     25 CM2       -17.2680    3.1580    6.4640 c3        1 W59     -0.090100
     26 C5A       -15.6960    6.5840    5.5010 c3        1 W59      0.088400
     27 O1A       -14.2820    6.6210    5.2040 os        1 W59     -0.458400
     28 H311        4.2540    0.8620    0.2610 hc        1 W59      0.057367
     29 H312        3.9530   -0.6150    1.2750 hc        1 W59      0.057367
     30 H313        3.9320    1.0340    2.0410 hc        1 W59      0.057367
     31 H4          1.3750   -0.3610    2.8020 ha        1 W59      0.173000
     32 H1C1       -1.5040   -0.5040    2.4210 hc        1 W59      0.066700
     33 H1C2       -1.9420   -0.3130    0.6680 hc        1 W59      0.066700
     34 H2C1       -1.9910    2.1940    0.9670 hc        1 W59      0.053700
     35 H2C2       -1.6150    1.9900    2.7230 hc        1 W59      0.053700
     36 H3C1       -4.0750    0.8110    1.2500 hc        1 W59      0.041200
     37 H3C2       -3.6940    0.5850    3.0010 hc        1 W59      0.041200
     38 H4C1       -4.1490    3.3070    1.5890 hc        1 W59      0.045200
     39 H4C2       -3.7720    3.0790    3.3410 hc        1 W59      0.045200
     40 H5C1       -6.2310    1.9190    1.8540 hc        1 W59      0.041700
     41 H5C2       -5.8540    1.6830    3.6050 hc        1 W59      0.041700
     42 H6C1       -5.9340    4.1820    3.9580 hc        1 W59      0.059200
     43 H6C2       -6.3110    4.4180    2.2090 hc        1 W59      0.059200
     44 H7C1       -8.0310    2.7930    4.2330 h1        1 W59      0.041200
     45 H7C2       -8.4160    3.0490    2.4580 h1        1 W59      0.041200
     46 H2B        -9.5980    6.9520    4.2260 ha        1 W59      0.147500
     47 H3B       -12.0240    7.2390    4.7980 ha        1 W59      0.156000
     48 H5B       -12.6320    2.9740    4.3160 ha        1 W59      0.156000
     49 H6B       -10.2420    2.6820    3.7510 ha        1 W59      0.147500
     50 H4A       -16.8060    4.9500    4.4960 h1        1 W59      0.074700
     51 HM11      -16.0310    4.6070    7.4850 hc        1 W59      0.043700
     52 HM12      -17.6050    5.2530    6.8700 hc        1 W59      0.043700
     53 HM21      -17.7900    2.8300    7.3960 hc        1 W59      0.038367
     54 HM22      -16.4290    2.4490    6.2600 hc        1 W59      0.038367
     55 HM23      -17.9910    3.0980    5.6140 hc        1 W59      0.038367
     56 H5A1      -16.2060    7.2390    4.7560 h1        1 W59      0.062700
     57 H5A2      -15.8260    6.9730    6.5390 h1        1 W59      0.062700
@<TRIPOS>BOND
     1    1    2 1   
     2    1    6 1   
     3    2    3 2   
     4    3    4 1   
     5    3    5 1   
     6    4   28 1   
     7    4   29 1   
     8    4   30 1   
     9    5    6 2   
    10    5   31 1   
    11    6    7 1   
    12    7    8 1   
    13    7   32 1   
    14    7   33 1   
    15    8    9 1   
    16    8   34 1   
    17    8   35 1   
    18    9   10 1   
    19    9   36 1   
    20    9   37 1   
    21   10   11 1   
    22   10   38 1   
    23   10   39 1   
    24   11   12 1   
    25   11   40 1   
    26   11   41 1   
    27   12   13 1   
    28   12   42 1   
    29   12   43 1   
    30   13   14 1   
    31   13   44 1   
    32   13   45 1   
    33   14   15 1   
    34   15   16 ar  
    35   15   20 ar  
    36   16   17 ar  
    37   16   46 1   
    38   17   18 ar  
    39   17   47 1   
    40   18   19 ar  
    41   18   21 1   
    42   19   20 ar  
    43   19   48 1   
    44   20   49 1   
    45   21   22 2   
    46   21   27 1   
    47   22   23 1   
    48   23   24 1   
    49   23   26 1   
    50   23   50 1   
    51   24   25 1   
    52   24   51 1   
    53   24   52 1   
    54   25   53 1   
    55   25   54 1   
    56   25   55 1   
    57   26   27 1   
    58   26   56 1   
    59   26   57 1   
@<TRIPOS>SUBSTRUCTURE
     1 W59         1 TEMP              0 ****  ****    0 ROOT
