@<TRIPOS>MOLECULE
molecule
   58    62     1     0     0
SMALL
bcc


@<TRIPOS>ATOM
      1 C1           0.0000     0.0000     0.0000 ca         1 W61       0.143600
      2 C2           1.3860     0.0000     0.0000 ca         1 W61      -0.266300
      3 C3           2.0730     0.0000     1.2060 ca         1 W61       0.359600
      4 N4           1.4480     0.0010     2.3600 nb         1 W61      -0.640000
      5 C5           0.1120     0.0020     2.4350 ca         1 W61       0.420600
      6 C6          -0.6620     0.0010     1.2500 ca         1 W61      -0.125300
      7 C7          -2.0610     0.0020     1.3360 ca         1 W61      -0.097000
      8 C8          -2.6620     0.0040     2.5590 ca         1 W61      -0.125000
      9 C9          -1.9030     0.0050     3.7260 ca         1 W61      -0.115000
     10 C10         -0.5420     0.0030     3.6780 ca         1 W61      -0.161300
     11 C11          3.5810    -0.0000     1.1900 c3         1 W61       0.582600
     12 N20         -0.7150     0.0040    -1.1880 nh         1 W61      -0.626000
     13 C21         -0.3980     1.1960    -1.9880 c3         1 W61       0.168800
     14 C22         -1.2640     1.2040    -3.2510 c3         1 W61       0.160800
     15 N23         -1.0170    -0.0250    -4.0190 n3         1 W61      -0.720600
     16 C24         -1.3330    -1.2160    -3.2190 c3         1 W61       0.160800
     17 C26         -1.7740    -0.0190    -5.2770 c3         1 W61       0.145500
     18 C27         -1.3940    -1.2360    -6.1480 c3         1 W61       0.155800
     19 N28         -1.3430    -0.7730    -7.5460 n7         1 W61      -0.773200
     20 C29         -1.6950     0.6630    -7.5810 c3         1 W61       0.085500
     21 C30         -1.3610     1.1860    -6.1620 c3         1 W61      -0.075400
     22 C32         -0.4680    -1.2230    -1.9570 c3         1 W61       0.168800
     23 C33         -0.8660     1.3810    -8.6150 c          1 W61       0.676100
     24 N46         -1.2630     2.5820    -9.0790 n          1 W61      -0.507800
     25 C47         -2.4920     3.2430    -8.6150 c3         1 W61       0.206100
     26 S48         -2.6270     4.7630    -9.6340 ss         1 W61      -0.364200
     27 C49         -1.4750     4.1750   -10.9460 c3         1 W61       0.021700
     28 C50         -0.4990     3.3290   -10.0770 c3         1 W61       0.097000
     29 F52          4.0470     1.3190     1.1840 f          1 W61      -0.214967
     30 F53          4.0580    -0.6580     2.3280 f          1 W61      -0.214967
     31 F54          4.0340    -0.6600     0.0430 f          1 W61      -0.214967
     32 O57          0.1570     0.8780    -9.0290 o          1 W61      -0.559100
     33 H2           1.9300    -0.0010    -0.9370 ha         1 W61       0.159000
     34 H7          -2.6620     0.0010     0.4340 ha         1 W61       0.154000
     35 H8          -3.7440     0.0050     2.6230 ha         1 W61       0.135000
     36 H9          -2.4030     0.0060     4.6880 ha         1 W61       0.137000
     37 H10          0.0340     0.0040     4.5960 ha         1 W61       0.155000
     38 H21         -0.6030     2.0860    -1.4060 h1         1 W61       0.052450
     39 H21A         0.6480     1.1740    -2.2690 h1         1 W61       0.052450
     40 H22         -2.3090     1.2490    -2.9700 h1         1 W61       0.045200
     41 H22A        -1.0100     2.0650    -3.8570 h1         1 W61       0.045200
     42 H24         -2.3790    -1.1940    -2.9380 h1         1 W61       0.045200
     43 H24A        -1.1280    -2.1060    -3.8010 h1         1 W61       0.045200
     44 H26         -2.8410    -0.0040    -5.0900 h1         1 W61       0.030700
     45 H27         -2.1450    -2.0100    -6.0450 h1         1 W61       0.056200
     46 H27A        -0.4240    -1.6130    -5.8500 h1         1 W61       0.056200
     47 HN28        -2.0010    -1.2910    -8.0940 hn         1 W61       0.354800
     48 H29         -2.7520     0.7840    -7.7860 h1         1 W61       0.038700
     49 H30         -0.3010     1.3890    -6.0660 hc         1 W61       0.068200
     50 H30A        -1.9540     2.0600    -5.9240 hc         1 W61       0.068200
     51 H32          0.5780    -1.2680    -2.2370 h1         1 W61       0.052450
     52 H32A        -0.7220    -2.0840    -1.3510 h1         1 W61       0.052450
     53 H47         -2.4060     3.5010    -7.5670 h2         1 W61       0.065700
     54 H47A        -3.3490     2.6020    -8.7830 h2         1 W61       0.065700
     55 H49         -1.9900     3.5570   -11.6710 h1         1 W61       0.085200
     56 H49A        -0.9620     5.0050   -11.4160 h1         1 W61       0.085200
     57 H50          0.2000     3.9880    -9.5760 h1         1 W61       0.072700
     58 H50A         0.0400     2.6360   -10.7110 h1         1 W61       0.072700
@<TRIPOS>BOND
     1     1     2 ar
     2     1     6 ar
     3     1    12 1
     4     2     3 ar
     5     3     4 ar
     6     3    11 1
     7     4     5 ar
     8     5     6 ar
     9     5    10 ar
    10     6     7 ar
    11     7     8 ar
    12     8     9 ar
    13     9    10 ar
    14    11    29 1
    15    11    30 1
    16    11    31 1
    17    12    13 1
    18    12    22 1
    19    13    14 1
    20    14    15 1
    21    15    16 1
    22    15    17 1
    23    16    22 1
    24    17    18 1
    25    17    21 1
    26    18    19 1
    27    19    20 1
    28    20    21 1
    29    20    23 1
    30    23    24 1
    31    23    32 2
    32    24    25 1
    33    24    28 1
    34    25    26 1
    35    26    27 1
    36    27    28 1
    37     2    33 1
    38     7    34 1
    39     8    35 1
    40     9    36 1
    41    10    37 1
    42    13    38 1
    43    13    39 1
    44    14    40 1
    45    14    41 1
    46    16    42 1
    47    16    43 1
    48    17    44 1
    49    18    45 1
    50    18    46 1
    51    19    47 1
    52    20    48 1
    53    21    49 1
    54    21    50 1
    55    22    51 1
    56    22    52 1
    57    25    53 1
    58    25    54 1
    59    27    55 1
    60    27    56 1
    61    28    57 1
    62    28    58 1
@<TRIPOS>SUBSTRUCTURE
     1 W61         1 TEMP              0 ****  ****    0 ROOT
