@<TRIPOS>MOLECULE
W64
   48    50     1     0     0
SMALL
bcc


@<TRIPOS>ATOM
      1 N01          0.0000     0.0000     0.0000 nb         1 W64      -0.658000
      2 C02          1.3240     0.0000     0.0000 ca         1 W64       0.516200
      3 N02          2.0130    -0.0010    -1.2080 nv         1 W64      -0.536500
      4 C03          2.0320     0.0000     1.1970 ca         1 W64      -0.311300
      5 C04          1.3340    -0.0000     2.3920 ca         1 W64      -0.003300
      6 C05         -0.0540     0.0000     2.3470 ca         1 W64      -0.289300
      7 C06         -0.6920     0.0000     1.1230 ca         1 W64       0.427600
      8 C07          2.0630     0.0000     3.7100 c3         1 W64       0.060200
      9 C08         -2.1980     0.0000     1.0690 c3         1 W64      -0.074700
     10 C09         -2.6770     1.1820     0.2250 c3         1 W64       0.039900
     11 N11         -6.2250     1.7900     1.2710 nb         1 W64      -0.555000
     12 C12         -4.9060     1.7960     1.2730 ca         1 W64       0.375200
     13 C13         -4.1910     1.1430     0.2880 ca         1 W64      -0.181600
     14 C14         -4.8740     0.4730    -0.7140 ca         1 W64      -0.102000
     15 C15         -6.2670     0.4860    -0.6870 ca         1 W64      -0.091700
     16 C16         -6.9150     1.1660     0.3370 ca         1 W64       0.332200
     17 C22         -8.4450    -0.0270    -1.4450 c3         1 W64       0.134800
     18 N21         -7.0010    -0.1750    -1.6750 nh         1 W64      -0.356000
     19 C26         -6.6320     0.3030    -3.0140 c3         1 W64       0.134800
     20 C23         -9.2110    -0.8290    -2.4990 c3         1 W64       0.153800
     21 C25         -7.3990    -0.4990    -4.0690 c3         1 W64       0.153800
     22 N24         -8.8420    -0.3510    -3.8380 n3         1 W64      -0.548600
     23 C27         -9.6140    -1.0460    -4.8770 c3         1 W64       0.189100
     24 H071         1.7830     0.8790     4.2780 hc         1 W64       0.010367
     25 H072         1.8000    -0.8900     4.2690 hc         1 W64       0.010367
     26 H073         3.1320     0.0120     3.5320 hc         1 W64       0.010367
     27 H05         -0.6300     0.0000     3.2650 ha         1 W64       0.120000
     28 H081        -2.5430    -0.9250     0.6240 hc         1 W64       0.026700
     29 H082        -2.5960     0.0880     2.0730 hc         1 W64       0.026700
     30 H03          3.1150    -0.0000     1.1940 ha         1 W64       0.119000
     31 H021         1.5090    -0.0320    -2.0720 hn         1 W64       0.269300
     32 H022         3.0130     0.0550    -1.2130 hn         1 W64       0.269300
     33 H091        -2.3320     2.1080     0.6700 hc         1 W64       0.029700
     34 H092        -2.2800     1.0940    -0.7790 hc         1 W64       0.029700
     35 H16         -7.9970     1.1820     0.3690 h4         1 W64      -0.002900
     36 H14         -4.3400    -0.0110    -1.5230 ha         1 W64       0.124000
     37 H221        -8.7170     1.0190    -1.5200 h1         1 W64       0.025200
     38 H222        -8.6930    -0.4000    -0.4580 h1         1 W64       0.025200
     39 H261        -6.8860     1.3530    -3.1040 h1         1 W64       0.025200
     40 H262        -5.5680     0.1700    -3.1630 h1         1 W64       0.025200
     41 H231        -8.9570    -1.8780    -2.4080 h1         1 W64       0.015700
     42 H232       -10.2760    -0.6950    -2.3490 h1         1 W64       0.015700
     43 H271       -10.6730    -0.8930    -4.7030 h1         1 W64       0.001033
     44 H272        -9.3930    -2.1060    -4.8430 h1         1 W64       0.001033
     45 H273        -9.3470    -0.6530    -5.8500 h1         1 W64       0.001033
     46 H251        -7.1270    -1.5450    -3.9940 h1         1 W64       0.015700
     47 H252        -7.1520    -0.1250    -5.0550 h1         1 W64       0.015700
     48 H12         -4.3760     2.3210     2.0590 h4         1 W64      -0.017900
@<TRIPOS>BOND
     1     1     2 ar  
     2     1     7 ar  
     3     2     3 1   
     4     2     4 ar  
     5     3    31 1   
     6     3    32 1   
     7     4     5 ar  
     8     4    30 1   
     9     5     6 ar  
    10     5     8 1   
    11     6     7 ar  
    12     6    27 1   
    13     7     9 1   
    14     8    24 1   
    15     8    25 1   
    16     8    26 1   
    17     9    10 1   
    18     9    28 1   
    19     9    29 1   
    20    10    13 1   
    21    10    33 1   
    22    10    34 1   
    23    11    12 ar  
    24    11    16 ar  
    25    12    13 ar  
    26    12    48 1   
    27    13    14 ar  
    28    14    15 ar  
    29    14    36 1   
    30    15    16 ar  
    31    15    18 1   
    32    16    35 1   
    33    17    18 1   
    34    17    20 1   
    35    17    37 1   
    36    17    38 1   
    37    18    19 1   
    38    19    21 1   
    39    19    39 1   
    40    19    40 1   
    41    20    22 1   
    42    20    41 1   
    43    20    42 1   
    44    21    22 1   
    45    21    46 1   
    46    21    47 1   
    47    22    23 1   
    48    23    43 1   
    49    23    44 1   
    50    23    45 1   
@<TRIPOS>SUBSTRUCTURE
     1 W64         1 TEMP              0 ****  ****    0 ROOT
