@<TRIPOS>MOLECULE
molecule
   45    46     1     0     0
SMALL
bcc


@<TRIPOS>ATOM
      1 C07          0.0000     0.0000     0.0000 c3         1 W66      -0.050800
      2 C06          3.7800     0.0000     0.0000 ca         1 W66       0.438600
      3 C05          2.4770     0.0000     0.4550 ca         1 W66      -0.259300
      4 C04          1.4340     0.0010    -0.4620 ca         1 W66      -0.042300
      5 C03          1.7430     0.0010    -1.8110 ca         1 W66      -0.264300
      6 C02          3.0790     0.0010    -2.2000 ca         1 W66       0.685200
      7 N02          3.4030     0.0010    -3.5510 nv         1 W66      -1.084500
      8 N01          4.0440     0.0050    -1.2940 nb         1 W66      -0.720000
      9 C09          5.8430    -1.1820     0.7040 c3         1 W66      -0.028100
     10 C16          9.0700    -1.1360     3.4320 ca         1 W66       0.414200
     11 C15          7.9320    -1.8410     3.7750 ca         1 W66      -0.204600
     12 C14          6.8630    -1.8680     2.8940 ca         1 W66      -0.091000
     13 C13          6.9780    -1.1820     1.6940 ca         1 W66      -0.205600
     14 C12          8.1480    -0.4990     1.4200 ca         1 W66       0.418200
     15 N11          9.1440    -0.4900     2.2840 nb         1 W66      -0.685000
     16 C18          7.2860    -1.6350     6.1610 c3         1 W66      -0.079400
     17 N20          6.6620    -1.4790     8.5240 n7         1 W66      -0.820200
     18 C19          7.2080    -2.3770     7.4980 c3         1 W66       0.154800
     19 C21          6.5720    -2.1590     9.8230 c3         1 W66       0.147100
     20 H021         3.5070     0.8680    -4.0410 hn         1 W66       0.435800
     21 H022         3.5310    -0.8650    -4.0350 hn         1 W66       0.435800
     22 H03          0.9650    -0.1750    -2.5440 ha         1 W66       0.142000
     23 H071        -0.6430     0.3100    -0.8150 hc         1 W66       0.047700
     24 H072        -0.2760    -0.9980     0.3180 hc         1 W66       0.047700
     25 H073        -0.1120     0.6880     0.8300 hc         1 W66       0.047700
     26 H05          2.2700    -0.0040     1.5180 ha         1 W66       0.138000
     27 H081         4.5180    -0.0900     1.9950 hc         1 W66       0.058200
     28 H082         5.4710     0.9250     0.9030 hc         1 W66       0.058200
     29 H091         6.2400    -1.0930    -0.3000 hc         1 W66       0.061700
     30 H092         5.2870    -2.1070     0.7910 hc         1 W66       0.061700
     31 H14          5.9580    -2.4120     3.1370 ha         1 W66       0.139000
     32 H12          8.2440     0.0430     0.4870 h4         1 W66       0.027100
     33 H16          9.9090    -1.1080     4.1160 h4         1 W66       0.021100
     34 H171         8.8470    -2.8930     5.3850 hc         1 W66       0.049700
     35 H172         7.2100    -3.4350     4.9880 hc         1 W66       0.049700
     36 H181         6.2950    -1.3130     5.8690 hc         1 W66       0.052200
     37 H182         7.9310    -0.7710     6.2650 hc         1 W66       0.052200
     38 H191         8.2000    -2.6990     7.7910 h1         1 W66       0.031200
     39 H192         6.5640    -3.2410     7.3940 h1         1 W66       0.031200
     40 H20          7.2490    -0.6730     8.6090 hn         1 W66       0.351800
     41 H211         5.9260    -3.0240     9.7340 h1         1 W66       0.030367
     42 H212         6.1640    -1.4780    10.5600 h1         1 W66       0.030367
     43 H213         7.5600    -2.4770    10.1330 h1         1 W66       0.030367
     44 C08          4.9150    -0.0010     0.9910 c3         1 W66      -0.120700
     45 C17          7.8550    -2.5710     5.0920 c3         1 W66      -0.033100
@<TRIPOS>BOND
     1     7     6 1
     2     6     5 ar
     3     6     8 ar
     4     5     4 ar
     5     4     1 1
     6     4     3 ar
     7     3     2 ar
     8     8     2 ar
     9     2    44 1
    10    44     9 1
    11     9    13 1
    12    13    12 ar
    13    13    14 ar
    14    12    11 ar
    15    14    15 ar
    16    15    10 ar
    17    10    11 ar
    18    11    45 1
    19    45    16 1
    20    16    18 1
    21    18    17 1
    22    17    19 1
    23     7    20 1
    24     7    21 1
    25     5    22 1
    26     1    23 1
    27     1    24 1
    28     1    25 1
    29     3    26 1
    30    44    27 1
    31    44    28 1
    32     9    29 1
    33     9    30 1
    34    12    31 1
    35    14    32 1
    36    10    33 1
    37    45    34 1
    38    45    35 1
    39    16    36 1
    40    16    37 1
    41    18    38 1
    42    18    39 1
    43    17    40 1
    44    19    41 1
    45    19    42 1
    46    19    43 1
@<TRIPOS>SUBSTRUCTURE
     1 W66         1 TEMP              0 ****  ****    0 ROOT
