@<TRIPOS>MOLECULE
W66
   45    46     1     0     0
SMALL
bcc


@<TRIPOS>ATOM
      1 C07          0.0000     0.0000     0.0000 c3         1 W66       0.062200
      2 C06          3.7800     0.0000     0.0000 ca         1 W66       0.382600
      3 C05          2.4770     0.0000     0.4550 ca         1 W66      -0.224300
      4 C04          1.4340     0.0010    -0.4620 ca         1 W66      -0.051300
      5 C03          1.7430     0.0010    -1.8110 ca         1 W66      -0.233300
      6 C02          3.0790     0.0010    -2.2000 ca         1 W66       0.503200
      7 N02          3.4030     0.0010    -3.5510 nv         1 W66      -0.659500
      8 N01          4.0440     0.0050    -1.2940 nb         1 W66      -0.590000
      9 C09          5.8430    -1.1820     0.7040 c3         1 W66       0.036900
     10 C16          9.0700    -1.1360     3.4320 ca         1 W66       0.399200
     11 C15          7.9320    -1.8410     3.7750 ca         1 W66      -0.207600
     12 C14          6.8630    -1.8680     2.8940 ca         1 W66      -0.066000
     13 C13          6.9780    -1.1820     1.6940 ca         1 W66      -0.205600
     14 C12          8.1480    -0.4990     1.4200 ca         1 W66       0.402200
     15 N11          9.1440    -0.4900     2.2840 nb         1 W66      -0.578000
     16 C18          7.2860    -1.6350     6.1610 c3         1 W66      -0.028400
     17 N20          6.6620    -1.4790     8.5240 n7         1 W66      -0.586200
     18 C19          7.2080    -2.3770     7.4980 c3         1 W66       0.140800
     19 C21          6.5720    -2.1590     9.8230 c3         1 W66       0.179100
     20 H021         3.5070     0.8680    -4.0410 hn         1 W66       0.275800
     21 H022         3.5310    -0.8650    -4.0350 hn         1 W66       0.275800
     22 H03          0.9650    -0.1750    -2.5440 ha         1 W66       0.120000
     23 H071        -0.6430     0.3100    -0.8150 hc         1 W66       0.010700
     24 H072        -0.2760    -0.9980     0.3180 hc         1 W66       0.010700
     25 H073        -0.1120     0.6880     0.8300 hc         1 W66       0.010700
     26 H05          2.2700    -0.0040     1.5180 ha         1 W66       0.118000
     27 H081         4.5180    -0.0900     1.9950 hc         1 W66       0.024700
     28 H082         5.4710     0.9250     0.9030 hc         1 W66       0.024700
     29 H091         6.2400    -1.0930    -0.3000 hc         1 W66       0.029200
     30 H092         5.2870    -2.1070     0.7910 hc         1 W66       0.029200
     31 H14          5.9580    -2.4120     3.1370 ha         1 W66       0.114000
     32 H12          8.2440     0.0430     0.4870 h4         1 W66      -0.014900
     33 H16          9.9090    -1.1080     4.1160 h4         1 W66      -0.018900
     34 H171         8.8470    -2.8930     5.3850 hc         1 W66       0.019200
     35 H172         7.2100    -3.4350     4.9880 hc         1 W66       0.019200
     36 H181         6.2950    -1.3130     5.8690 hc         1 W66       0.022700
     37 H182         7.9310    -0.7710     6.2650 hc         1 W66       0.022700
     38 H191         8.2000    -2.6990     7.7910 h1         1 W66       0.006200
     39 H192         6.5640    -3.2410     7.3940 h1         1 W66       0.006200
     40 H20          7.2490    -0.6730     8.6090 hn         1 W66       0.251800
     41 H211         5.9260    -3.0240     9.7340 h1         1 W66      -0.002300
     42 H212         6.1640    -1.4780    10.5600 h1         1 W66      -0.002300
     43 H213         7.5600    -2.4770    10.1330 h1         1 W66      -0.002300
     44 C08          4.9150    -0.0010     0.9910 c3         1 W66      -0.066700
     45 C17          7.8550    -2.5710     5.0920 c3         1 W66       0.038900
@<TRIPOS>BOND
     1     1     4 1   
     2     1    23 1   
     3     1    24 1   
     4     1    25 1   
     5     2     3 ar  
     6     2     8 ar  
     7     2    44 1   
     8     3     4 ar  
     9     3    26 1   
    10     4     5 ar  
    11     5     6 ar  
    12     5    22 1   
    13     6     7 1   
    14     6     8 ar  
    15     7    20 1   
    16     7    21 1   
    17     9    13 1   
    18     9    29 1   
    19     9    30 1   
    20     9    44 1   
    21    10    11 ar  
    22    10    15 ar  
    23    10    33 1   
    24    11    12 ar  
    25    11    45 1   
    26    12    13 ar  
    27    12    31 1   
    28    13    14 ar  
    29    14    15 ar  
    30    14    32 1   
    31    16    18 1   
    32    16    36 1   
    33    16    37 1   
    34    16    45 1   
    35    17    18 1   
    36    17    19 1   
    37    17    40 1   
    38    18    38 1   
    39    18    39 1   
    40    19    41 1   
    41    19    42 1   
    42    19    43 1   
    43    27    44 1   
    44    28    44 1   
    45    34    45 1   
    46    35    45 1   
@<TRIPOS>SUBSTRUCTURE
     1 W66         1 TEMP              0 ****  ****    0 ROOT
