@<TRIPOS>MOLECULE
W67
   48    49     1     0     0
SMALL
bcc


@<TRIPOS>ATOM
      1 N01          0.0000     0.0000     0.0000 nb         1 W67      -0.592000
      2 C02          1.3240     0.0000     0.0000 ca         1 W67       0.502200
      3 N02          2.0130     0.0000    -1.2070 nv         1 W67      -0.660500
      4 C03          2.0320     0.0000     1.1980 ca         1 W67      -0.231300
      5 C04          1.3340    -0.0010     2.3910 ca         1 W67      -0.051300
      6 C05         -0.0530    -0.0010     2.3470 ca         1 W67      -0.222300
      7 C06         -0.6920    -0.0010     1.1240 ca         1 W67       0.381600
      8 C07          2.0630    -0.0020     3.7090 c3         1 W67       0.062200
      9 C08         -2.1980     0.0000     1.0700 c3         1 W67      -0.072700
     10 C09         -2.6780     1.1830     0.2260 c3         1 W67       0.040900
     11 N11         -6.2250     1.7870     1.2680 nb         1 W67      -0.578000
     12 C12         -4.9070     1.7960     1.2750 ca         1 W67       0.401200
     13 C13         -4.1910     1.1430     0.2890 ca         1 W67      -0.206600
     14 C14         -4.8760     0.4740    -0.7130 ca         1 W67      -0.068000
     15 C15         -6.2630     0.4870    -0.6860 ca         1 W67      -0.205600
     16 C16         -6.9100     1.1610     0.3310 ca         1 W67       0.400200
     17 C17         -7.0520    -0.2250    -1.7540 c3         1 W67       0.037900
     18 C18         -7.3150    -1.6680    -1.3170 c3         1 W67      -0.034400
     19 C19         -8.1180    -2.3910    -2.4020 c3         1 W67       0.152800
     20 C22         -9.3330    -4.4300    -2.8780 c3         1 W67       0.182100
     21 N20         -8.3700    -3.7760    -1.9810 n3         1 W67      -0.546600
     22 C21         -7.1180    -4.5390    -1.9060 c3         1 W67       0.182100
     23 H021         2.2400    -0.8660    -1.6540 hn         1 W67       0.275800
     24 H022         2.2700     0.8670    -1.6360 hn         1 W67       0.275800
     25 H03          3.1150    -0.0000     1.1950 ha         1 W67       0.121000
     26 H05         -0.6300    -0.0020     3.2650 ha         1 W67       0.119000
     27 H071         3.0970    -0.2850     3.5510 hc         1 W67       0.010700
     28 H072         1.5940    -0.7100     4.3810 hc         1 W67       0.010700
     29 H073         2.0240     0.9900     4.1440 hc         1 W67       0.010700
     30 H081        -2.5950     0.0890     2.0740 hc         1 W67       0.025200
     31 H082        -2.5440    -0.9250     0.6260 hc         1 W67       0.025200
     32 H091        -2.2800     1.0950    -0.7780 hc         1 W67       0.030200
     33 H092        -2.3320     2.1080     0.6710 hc         1 W67       0.030200
     34 H12         -4.3790     2.3210     2.0620 h4         1 W67      -0.018900
     35 H14         -4.3430    -0.0100    -1.5220 ha         1 W67       0.117000
     36 H16         -7.9930     1.1760     0.3580 h4         1 W67      -0.016900
     37 H171        -6.4900    -0.2250    -2.6800 hc         1 W67       0.018700
     38 H172        -7.9970     0.2840    -1.9050 hc         1 W67       0.018700
     39 H181        -7.8770    -1.6680    -0.3910 hc         1 W67       0.026200
     40 H182        -6.3710    -2.1770    -1.1670 hc         1 W67       0.026200
     41 H191        -7.5560    -2.3910    -3.3280 h1         1 W67       0.008700
     42 H192        -9.0620    -1.8810    -2.5520 h1         1 W67       0.008700
     43 H221        -8.9390    -4.4380    -3.8870 h1         1 W67       0.001033
     44 H222        -9.4990    -5.4490    -2.5480 h1         1 W67       0.001033
     45 H223       -10.2700    -3.8870    -2.8600 h1         1 W67       0.001033
     46 H211        -7.3280    -5.5920    -2.0470 h1         1 W67       0.001033
     47 H212        -6.6620    -4.3890    -0.9350 h1         1 W67       0.001033
     48 H213        -6.4410    -4.1990    -2.6790 h1         1 W67       0.001033
@<TRIPOS>BOND
     1     1     2 ar  
     2     1     7 ar  
     3     2     3 1   
     4     2     4 ar  
     5     3    23 1   
     6     3    24 1   
     7     4     5 ar  
     8     4    25 1   
     9     5     6 ar  
    10     5     8 1   
    11     6     7 ar  
    12     6    26 1   
    13     7     9 1   
    14     8    27 1   
    15     8    28 1   
    16     8    29 1   
    17     9    10 1   
    18     9    30 1   
    19     9    31 1   
    20    10    13 1   
    21    10    32 1   
    22    10    33 1   
    23    11    12 ar  
    24    11    16 ar  
    25    12    13 ar  
    26    12    34 1   
    27    13    14 ar  
    28    14    15 ar  
    29    14    35 1   
    30    15    16 ar  
    31    15    17 1   
    32    16    36 1   
    33    17    18 1   
    34    17    37 1   
    35    17    38 1   
    36    18    19 1   
    37    18    39 1   
    38    18    40 1   
    39    19    21 1   
    40    19    41 1   
    41    19    42 1   
    42    20    21 1   
    43    20    43 1   
    44    20    44 1   
    45    20    45 1   
    46    21    22 1   
    47    22    46 1   
    48    22    47 1   
    49    22    48 1   
@<TRIPOS>SUBSTRUCTURE
     1 W67         1 TEMP              0 ****  ****    0 ROOT
