@<TRIPOS>MOLECULE
molecule
   46    47     1     0     0
SMALL
bcc


@<TRIPOS>ATOM
      1 F13          0.0000     0.0000     0.0000 f          1 W68      -0.143900
      2 C13          1.3510     0.0000     0.0000 ca         1 W68       0.135900
      3 C14          2.0430     0.0000     1.1990 ca         1 W68      -0.171000
      4 C15          3.4250    -0.0060     1.1990 ca         1 W68      -0.054300
      5 C17          4.1790    -0.0070     2.5040 c3         1 W68      -0.037100
      6 C18          4.4410     1.4350     2.9430 c3         1 W68      -0.079400
      7 C19          5.2060     1.4340     4.2670 c3         1 W68       0.154800
      8 N20          5.4570     2.8190     4.6880 n7         1 W68      -0.819200
      9 C21          6.1920     2.8570     5.9600 c3         1 W68       0.147100
     10 C12          2.0440    -0.0060    -1.1980 ca         1 W68      -0.171000
     11 C11          3.4260    -0.0070    -1.1970 ca         1 W68      -0.055300
     12 C16          4.1170    -0.0110     0.0020 ca         1 W68      -0.136000
     13 C09          4.1810    -0.0130    -2.5000 c3         1 W68      -0.031100
     14 C08          4.4380     1.4270    -2.9490 c3         1 W68      -0.120700
     15 C06          5.1930     1.4210    -4.2530 ca         1 W68       0.452600
     16 N01          6.3300     0.7580    -4.3430 nb         1 W68      -0.739000
     17 C02          7.0250     0.7240    -5.4690 ca         1 W68       0.693200
     18 N02          8.2190     0.0120    -5.5210 nv         1 W68      -1.057500
     19 C03          6.5740     1.3940    -6.6020 ca         1 W68      -0.287300
     20 C04          5.3860     2.0990    -6.5370 ca         1 W68      -0.028300
     21 C05          4.6830     2.1050    -5.3390 ca         1 W68      -0.279300
     22 C07          4.8620     2.8390    -7.7410 c3         1 W68      -0.050800
     23 H1           1.5020     0.0640     2.1360 ha         1 W68       0.143000
     24 H2           5.1240    -0.5220     2.3740 hc         1 W68       0.051200
     25 H3           3.5920    -0.5140     3.2600 hc         1 W68       0.051200
     26 H4           5.0290     1.9420     2.1870 hc         1 W68       0.053200
     27 H5           3.4970     1.9500     3.0720 hc         1 W68       0.053200
     28 H6           4.6180     0.9270     5.0230 h1         1 W68       0.031700
     29 H7           6.1500     0.9180     4.1380 h1         1 W68       0.031700
     30 H8           4.5850     3.3000     4.7920 hn         1 W68       0.351800
     31 H10          6.3670     3.8870     6.2460 h1         1 W68       0.030367
     32 H11          7.1420     2.3490     5.8440 h1         1 W68       0.030367
     33 H12          5.6100     2.3630     6.7290 h1         1 W68       0.030367
     34 H13          1.5040    -0.0020    -2.1370 ha         1 W68       0.144000
     35 H14          5.2000    -0.0140     0.0020 ha         1 W68       0.140000
     36 H15          5.1280    -0.5230    -2.3670 hc         1 W68       0.063200
     37 H16          3.5970    -0.5270    -3.2540 hc         1 W68       0.063200
     38 H17          5.0220     1.9410    -2.1960 hc         1 W68       0.058700
     39 H18          3.4920     1.9380    -3.0820 hc         1 W68       0.058700
     40 H19          8.3500    -0.6940    -6.2190 hn         1 W68       0.436300
     41 H20          8.9450     0.2030    -4.8590 hn         1 W68       0.436300
     42 H21          7.1470     1.3660    -7.5210 ha         1 W68       0.140000
     43 H22          3.7490     2.6470    -5.2550 ha         1 W68       0.138000
     44 H23          4.4860     3.8080    -7.4340 hc         1 W68       0.047367
     45 H24          4.0610     2.2690    -8.1950 hc         1 W68       0.047367
     46 H25          5.6620     2.9740    -8.4590 hc         1 W68       0.047367
@<TRIPOS>BOND
     1     9     8 1
     2     8     7 1
     3     7     6 1
     4     5     6 1
     5     5     4 1
     6     4    12 ar
     7     4     3 ar
     8    12    11 ar
     9     3     2 ar
    10    14    15 1
    11    14    13 1
    12    18    17 1
    13    16    15 ar
    14    16    17 ar
    15    15    21 ar
    16    17    19 ar
    17    11    13 1
    18    11    10 ar
    19     2    10 ar
    20     2     1 1
    21    21    20 ar
    22    19    20 ar
    23    20    22 1
    24     3    23 1
    25     5    24 1
    26     5    25 1
    27     6    26 1
    28     6    27 1
    29     7    28 1
    30     7    29 1
    31     8    30 1
    32     9    31 1
    33     9    32 1
    34     9    33 1
    35    10    34 1
    36    12    35 1
    37    13    36 1
    38    13    37 1
    39    14    38 1
    40    14    39 1
    41    18    40 1
    42    18    41 1
    43    19    42 1
    44    21    43 1
    45    22    44 1
    46    22    45 1
    47    22    46 1
@<TRIPOS>SUBSTRUCTURE
     1 W68         1 TEMP              0 ****  ****    0 ROOT
