@<TRIPOS>MOLECULE
W69
   49    50     1     0     0
SMALL
bcc


@<TRIPOS>ATOM
      1 F13          0.0000     0.0000     0.0000 f          1 W69      -0.130900
      2 C13          1.3520     0.0000     0.0000 ca         1 W69       0.108900
      3 C12          2.0440     0.0000     1.1990 ca         1 W69      -0.134000
      4 C14          2.0440    -0.0060    -1.1980 ca         1 W69      -0.138000
      5 C15          3.4270    -0.0120    -1.1960 ca         1 W69      -0.060300
      6 C17          4.1820    -0.0250    -2.5000 c3         1 W69       0.029900
      7 C18          4.4250    -1.4720    -2.9350 c3         1 W69      -0.034400
      8 C19          5.1910    -1.4850    -4.2590 c3         1 W69       0.152800
      9 N20          5.4250    -2.8730    -4.6760 n3         1 W69      -0.546600
     10 C21          4.1590    -3.5470    -4.9990 c3         1 W69       0.182100
     11 C22          6.3560    -2.9330    -5.8100 c3         1 W69       0.182100
     12 C16          4.1170    -0.0130     0.0020 ca         1 W69      -0.110000
     13 C11          3.4260    -0.0010     1.1990 ca         1 W69      -0.060300
     14 C09          4.1790    -0.0010     2.5040 c3         1 W69       0.028900
     15 C08          4.4460     1.4420     2.9380 c3         1 W69      -0.066700
     16 C06          5.2000     1.4430     4.2430 ca         1 W69       0.382600
     17 N01          4.7100     0.7890     5.2780 nb         1 W69      -0.591000
     18 C02          5.3380     0.7620     6.4440 ca         1 W69       0.502200
     19 N02          4.7850     0.0600     7.5100 nv         1 W69      -0.659500
     20 C03          6.5480     1.4290     6.6120 ca         1 W69      -0.230300
     21 C04          7.0860     2.1230     5.5430 ca         1 W69      -0.052300
     22 C05          6.3980     2.1220     4.3380 ca         1 W69      -0.223300
     23 C07          8.3950     2.8590     5.6840 c3         1 W69       0.063200
     24 H1           1.5020     0.0090     2.1380 ha         1 W69       0.125000
     25 H2           1.5040     0.0250    -2.1360 ha         1 W69       0.121000
     26 H3           3.6010     0.4870    -3.2580 hc         1 W69       0.018200
     27 H4           5.1320     0.4780    -2.3720 hc         1 W69       0.018200
     28 H5           3.4740    -1.9760    -3.0630 hc         1 W69       0.027200
     29 H6           5.0060    -1.9840    -2.1770 hc         1 W69       0.027200
     30 H7           6.1410    -0.9810    -4.1310 h1         1 W69       0.008200
     31 H8           4.6100    -0.9730    -5.0170 h1         1 W69       0.008200
     32 H10          3.7250    -3.9530    -4.0930 h1         1 W69       0.001200
     33 H11          3.4720    -2.8340    -5.4400 h1         1 W69       0.001200
     34 H12          4.3460    -4.3500    -5.7010 h1         1 W69       0.001200
     35 H13          7.3050    -2.4960    -5.5220 h1         1 W69       0.001200
     36 H14          5.9440    -2.3800    -6.6460 h1         1 W69       0.001200
     37 H15          6.5070    -3.9660    -6.1000 h1         1 W69       0.001200
     38 H16          5.2000    -0.0160     0.0020 ha         1 W69       0.113000
     39 H17          3.5900    -0.5030     3.2610 hc         1 W69       0.029700
     40 H18          5.1220    -0.5200     2.3770 hc         1 W69       0.029700
     41 H19          3.5040     1.9610     3.0660 hc         1 W69       0.024700
     42 H20          5.0350     1.9440     2.1800 hc         1 W69       0.024700
     43 H21          4.1330     0.5110     8.1210 hn         1 W69       0.275800
     44 H22          5.0180    -0.9030     7.6490 hn         1 W69       0.275800
     45 H23          7.0590     1.4070     7.5670 ha         1 W69       0.121000
     46 H24          6.7930     2.6560     3.4820 ha         1 W69       0.118000
     47 H25          8.4000     3.7160     5.0210 hc         1 W69       0.010700
     48 H26          9.2120     2.1970     5.4240 hc         1 W69       0.010700
     49 H27          8.5120     3.1940     6.7080 hc         1 W69       0.010700
@<TRIPOS>BOND
     1     1     2 1   
     2     2     3 ar  
     3     2     4 ar  
     4     3    13 ar  
     5     3    24 1   
     6     4     5 ar  
     7     4    25 1   
     8     5     6 1   
     9     5    12 ar  
    10     6     7 1   
    11     6    26 1   
    12     6    27 1   
    13     7     8 1   
    14     7    28 1   
    15     7    29 1   
    16     8     9 1   
    17     8    30 1   
    18     8    31 1   
    19     9    10 1   
    20     9    11 1   
    21    10    32 1   
    22    10    33 1   
    23    10    34 1   
    24    11    35 1   
    25    11    36 1   
    26    11    37 1   
    27    12    13 ar  
    28    12    38 1   
    29    13    14 1   
    30    14    15 1   
    31    14    39 1   
    32    14    40 1   
    33    15    16 1   
    34    15    41 1   
    35    15    42 1   
    36    16    17 ar  
    37    16    22 ar  
    38    17    18 ar  
    39    18    19 1   
    40    18    20 ar  
    41    19    43 1   
    42    19    44 1   
    43    20    21 ar  
    44    20    45 1   
    45    21    22 ar  
    46    21    23 1   
    47    22    46 1   
    48    23    47 1   
    49    23    48 1   
    50    23    49 1   
@<TRIPOS>SUBSTRUCTURE
     1 W69         1 TEMP              0 ****  ****    0 ROOT
