@<TRIPOS>MOLECULE
W6Q
   38    38     1     0     0
SMALL
bcc


@<TRIPOS>ATOM
      1 O12          0.0000     0.0000     0.0000 o          1 W6Q      -0.590100
      2 C11          1.2120     0.0000     0.0000 c          1 W6Q       0.477100
      3 C7           1.9670     0.0000     1.3050 c3         1 W6Q       0.104100
      4 O9           1.0430    -0.1160     2.3890 oh         1 W6Q      -0.578800
      5 C2           2.7500     1.3070     1.4400 c3         1 W6Q      -0.072500
      6 C3           3.5160     1.3080     2.7660 c3         1 W6Q       0.002900
      7 N1           1.8180     2.4420     1.4140 nz         1 W6Q       0.074400
      8 N13          1.8860    -0.0060    -1.1670 ns         1 W6Q      -0.177900
      9 C15          1.1530    -0.0130    -2.4360 c3         1 W6Q       0.110300
     10 C18          2.1320    -0.0190    -3.5810 ca         1 W6Q      -0.152300
     11 C33          2.4280     1.1570    -4.2450 ca         1 W6Q      -0.086000
     12 C28          3.3290     1.1520    -5.2930 ca         1 W6Q      -0.087300
     13 C29          3.6510     2.4340    -6.0150 c3         1 W6Q       0.063200
     14 C26          3.9360    -0.0290    -5.6760 ca         1 W6Q      -0.070000
     15 C24          3.6410    -1.2050    -5.0130 ca         1 W6Q      -0.086000
     16 C19          2.7390    -1.2010    -3.9660 ca         1 W6Q      -0.077300
     17 C20          2.4210    -2.4820    -3.2400 c3         1 W6Q       0.058200
     18 H1           2.6550    -0.8370     1.3250 h1         1 W6Q       0.057700
     19 H2           0.8760    -1.0280     2.5640 ho         1 W6Q       0.448000
     20 H3           3.4500     1.3960     0.6190 hx         1 W6Q       0.086700
     21 H4           3.9160     0.3190     2.9530 hc         1 W6Q       0.040700
     22 H5           2.8440     1.5840     3.5710 hc         1 W6Q       0.040700
     23 H6           4.3280     2.0230     2.7130 hc         1 W6Q       0.040700
     24 H7           1.4370     2.5410     0.4940 hn         1 W6Q       0.232800
     25 H8           1.0760     2.2800     2.0660 hn         1 W6Q       0.232800
     26 H10          2.8870    -0.0090    -1.1680 hn         1 W6Q       0.179500
     27 H11          0.5300    -0.8970    -2.4880 h1         1 W6Q       0.040700
     28 H12          0.5310     0.8720    -2.4970 h1         1 W6Q       0.040700
     29 H13          1.9500     2.0820    -3.9460 ha         1 W6Q       0.103000
     30 H14          4.2630     3.0630    -5.3800 hc         1 W6Q       0.013367
     31 H15          2.7310     2.9530    -6.2580 hc         1 W6Q       0.013367
     32 H16          4.1900     2.2090    -6.9270 hc         1 W6Q       0.013367
     33 H17          4.6430    -0.0330    -6.4970 ha         1 W6Q       0.118000
     34 H18          4.1160    -2.1310    -5.3140 ha         1 W6Q       0.118000
     35 H19          2.8340    -3.3200    -3.7880 hc         1 W6Q       0.012033
     36 H20          2.8540    -2.4510    -2.2470 hc         1 W6Q       0.012033
     37 H21          1.3470    -2.5960    -3.1620 hc         1 W6Q       0.012033
     38 H131         2.3070     3.2820     1.6530 hn         1 W6Q       0.232800
@<TRIPOS>BOND
     1     1     2 2   
     2     2     3 1   
     3     2     8 1   
     4     3     4 1   
     5     3     5 1   
     6     3    18 1   
     7     4    19 1   
     8     5     6 1   
     9     5     7 1   
    10     5    20 1   
    11     6    21 1   
    12     6    22 1   
    13     6    23 1   
    14     7    24 1   
    15     7    25 1   
    16     7    38 1   
    17     8     9 1   
    18     8    26 1   
    19     9    10 1   
    20     9    27 1   
    21     9    28 1   
    22    10    11 ar  
    23    10    16 ar  
    24    11    12 ar  
    25    11    29 1   
    26    12    13 1   
    27    12    14 ar  
    28    13    30 1   
    29    13    31 1   
    30    13    32 1   
    31    14    15 ar  
    32    14    33 1   
    33    15    16 ar  
    34    15    34 1   
    35    16    17 1   
    36    17    35 1   
    37    17    36 1   
    38    17    37 1   
@<TRIPOS>SUBSTRUCTURE
     1 W6Q         1 TEMP              0 ****  ****    0 ROOT
