@<TRIPOS>MOLECULE
W6Y
   38    40     1     0     0
SMALL
bcc


@<TRIPOS>ATOM
      1 OAA          0.0000     0.0000     0.0000 o          1 W6Y      -0.888800
      2 CAQ          1.2150     0.0000     0.0000 c          1 W6Y       0.983200
      3 OAE          1.8900     0.0000     1.1670 o          1 W6Y      -0.888800
      4 CAT          1.9510    -0.0070    -1.2760 ca         1 W6Y      -0.072600
      5 CAH          3.3310     0.1540    -1.3000 ca         1 W6Y      -0.122000
      6 CAG          4.0220     0.1470    -2.5040 ca         1 W6Y      -0.126000
      7 CAJ          3.3850    -0.0160    -3.6960 ca         1 W6Y      -0.134000
      8 CAY          1.9920    -0.1840    -3.7480 ca         1 W6Y      -0.046000
      9 CAL          1.3200    -0.3530    -4.9710 ca         1 W6Y      -0.142000
     10 CAZ          1.2460    -0.1900    -2.5430 ca         1 W6Y      -0.022000
     11 CAK         -0.1420    -0.3630    -2.5890 ca         1 W6Y      -0.100000
     12 CAI         -0.7610    -0.5290    -3.7930 ca         1 W6Y      -0.123000
     13 CAS         -0.0320    -0.5120    -4.9800 ca         1 W6Y      -0.069300
     14 CAM         -0.7480    -0.7000    -6.2930 c3         1 W6Y       0.035900
     15 CAN         -1.1830     0.6630    -6.8350 c3         1 W6Y       0.021800
     16 CAU         -1.8990     0.4770    -8.1480 cc         1 W6Y      -0.252400
     17 CAX         -1.1590     0.4850    -9.4170 c          1 W6Y       0.612700
     18 OAD          0.0470     0.6430    -9.4270 o          1 W6Y      -0.694500
     19 NAP         -1.8400     0.3130   -10.5680 ns         1 W6Y      -0.142500
     20 CAW         -3.1720     0.1380   -10.5520 c          1 W6Y       0.558500
     21 OAC         -3.7640    -0.0100   -11.6050 o          1 W6Y      -0.780500
     22 NAO         -3.8700     0.1260    -9.4040 ns         1 W6Y       0.055900
     23 CAV         -3.2450     0.2890    -8.1860 cd         1 W6Y      -0.146600
     24 CAR         -4.0340     0.2740    -6.9320 c          1 W6Y       0.970800
     25 OAF         -3.4680     0.3080    -5.8580 o          1 W6Y      -0.849800
     26 OAB         -5.3780     0.2220    -6.9820 o          1 W6Y      -0.849800
     27 H2           3.8720     0.2860    -0.3710 ha         1 W6Y       0.120000
     28 H3           5.0970     0.2750    -2.4940 ha         1 W6Y       0.069000
     29 H4           3.9600    -0.0160    -4.6150 ha         1 W6Y       0.081000
     30 H5           1.8730    -0.3420    -5.9030 ha         1 W6Y       0.098000
     31 H6          -0.7210    -0.3780    -1.6730 ha         1 W6Y       0.185000
     32 H7          -1.8360    -0.6580    -3.8270 ha         1 W6Y       0.127000
     33 H8          -1.6210    -1.3240    -6.1420 hc         1 W6Y       0.014700
     34 H9          -0.0830    -1.1750    -7.0030 hc         1 W6Y       0.014700
     35 H10         -0.3110     1.2870    -6.9850 hc         1 W6Y       0.055200
     36 H11         -1.8490     1.1380    -6.1250 hc         1 W6Y       0.055200
     37 H12         -1.3490     0.3160   -11.4410 hn         1 W6Y       0.182500
     38 H13         -4.8620    -0.0030    -9.4330 hn         1 W6Y       0.208500
@<TRIPOS>BOND
     1     1     2 1   
     2     2     3 1   
     3     2     4 1   
     4     4     5 ar  
     5     4    10 ar  
     6     5     6 ar  
     7     5    27 1   
     8     6     7 ar  
     9     6    28 1   
    10     7     8 ar  
    11     7    29 1   
    12     8     9 ar  
    13     8    10 ar  
    14     9    13 ar  
    15     9    30 1   
    16    10    11 ar  
    17    11    12 ar  
    18    11    31 1   
    19    12    13 ar  
    20    12    32 1   
    21    13    14 1   
    22    14    15 1   
    23    14    33 1   
    24    14    34 1   
    25    15    16 1   
    26    15    35 1   
    27    15    36 1   
    28    16    17 1   
    29    16    23 2   
    30    17    18 2   
    31    17    19 1   
    32    19    20 1   
    33    19    37 1   
    34    20    21 2   
    35    20    22 1   
    36    22    23 1   
    37    22    38 1   
    38    23    24 1   
    39    24    25 1   
    40    24    26 1   
@<TRIPOS>SUBSTRUCTURE
     1 W6Y         1 TEMP              0 ****  ****    0 ROOT
