@<TRIPOS>MOLECULE
molecule
   38    40     1     0     0
SMALL
bcc


@<TRIPOS>ATOM
      1 OAA          0.0000     0.0000     0.0000 o          1 W6Y      -0.842300
      2 CAQ          1.2150     0.0000     0.0000 c          1 W6Y       0.889200
      3 OAE          1.8900     0.0000     1.1670 o          1 W6Y      -0.842300
      4 CAT          1.9510    -0.0070    -1.2760 ca         1 W6Y      -0.077600
      5 CAH          3.3310     0.1540    -1.3000 ca         1 W6Y      -0.140000
      6 CAG          4.0220     0.1470    -2.5040 ca         1 W6Y      -0.146000
      7 CAJ          3.3850    -0.0160    -3.6960 ca         1 W6Y      -0.154000
      8 CAY          1.9920    -0.1840    -3.7480 ca         1 W6Y      -0.045000
      9 CAL          1.3200    -0.3530    -4.9710 ca         1 W6Y      -0.159000
     10 CAZ          1.2460    -0.1900    -2.5430 ca         1 W6Y      -0.030000
     11 CAK         -0.1420    -0.3630    -2.5890 ca         1 W6Y      -0.101000
     12 CAI         -0.7610    -0.5290    -3.7930 ca         1 W6Y      -0.147000
     13 CAS         -0.0320    -0.5120    -4.9800 ca         1 W6Y      -0.065300
     14 CAM         -0.7480    -0.7000    -6.2930 c3         1 W6Y      -0.022100
     15 CAN         -1.1830     0.6630    -6.8350 c3         1 W6Y      -0.005200
     16 CAU         -1.8990     0.4770    -8.1480 cc         1 W6Y      -0.266400
     17 CAX         -1.1590     0.4850    -9.4170 c          1 W6Y       0.696700
     18 OAD          0.0470     0.6430    -9.4270 o          1 W6Y      -0.655500
     19 NAP         -1.8400     0.3130   -10.5680 ns         1 W6Y      -0.568500
     20 CAW         -3.1720     0.1380   -10.5520 c          1 W6Y       0.797500
     21 OAC         -3.7640    -0.0100   -11.6050 o          1 W6Y      -0.724500
     22 NAO         -3.8700     0.1260    -9.4040 ns         1 W6Y      -0.428100
     23 CAV         -3.2450     0.2890    -8.1860 cd         1 W6Y       0.028400
     24 CAR         -4.0340     0.2740    -6.9320 c          1 W6Y       0.877800
     25 OAF         -3.4680     0.3080    -5.8580 o          1 W6Y      -0.803300
     26 OAB         -5.3780     0.2220    -6.9820 o          1 W6Y      -0.803300
     27 H2           3.8720     0.2860    -0.3710 ha         1 W6Y       0.141000
     28 H3           5.0970     0.2750    -2.4940 ha         1 W6Y       0.089000
     29 H4           3.9600    -0.0160    -4.6150 ha         1 W6Y       0.100000
     30 H5           1.8730    -0.3420    -5.9030 ha         1 W6Y       0.114000
     31 H6          -0.7210    -0.3780    -1.6730 ha         1 W6Y       0.201000
     32 H7          -1.8360    -0.6580    -3.8270 ha         1 W6Y       0.148000
     33 H8          -1.6210    -1.3240    -6.1420 hc         1 W6Y       0.041700
     34 H9          -0.0830    -1.1750    -7.0030 hc         1 W6Y       0.041700
     35 H10         -0.3110     1.2870    -6.9850 hc         1 W6Y       0.076200
     36 H11         -1.8490     1.1380    -6.1250 hc         1 W6Y       0.076200
     37 H12         -1.3490     0.3160   -11.4410 hn         1 W6Y       0.334500
     38 H13         -4.8620    -0.0030    -9.4330 hn         1 W6Y       0.373500
@<TRIPOS>BOND
     1    21    20 2
     2    20    22 1
     3    20    19 1
     4    22    23 1
     5    25    24 1
     6    26    24 1
     7    24    23 1
     8    19    17 1
     9    23    16 2
    10    17    16 1
    11    17    18 2
    12    16    15 1
    13    15    14 1
    14     1     2 1
    15    12    11 ar
    16    12    13 ar
    17    14    13 1
    18    11    10 ar
    19    13     9 ar
    20     2     4 1
    21     2     3 1
    22    10     4 ar
    23    10     8 ar
    24     9     8 ar
    25     4     5 ar
    26     8     7 ar
    27     5     6 ar
    28     7     6 ar
    29     5    27 1
    30     6    28 1
    31     7    29 1
    32     9    30 1
    33    11    31 1
    34    12    32 1
    35    14    33 1
    36    14    34 1
    37    15    35 1
    38    15    36 1
    39    19    37 1
    40    22    38 1
@<TRIPOS>SUBSTRUCTURE
     1 W6Y         1 TEMP              0 ****  ****    0 ROOT
