@<TRIPOS>MOLECULE
molecule
   41    43     1     0     0
SMALL
bcc


@<TRIPOS>ATOM
      1 OAJ          0.0000     0.0000     0.0000 o          1 W70      -0.806800
      2 CAI          1.2140     0.0000     0.0000 c          1 W70       0.880800
      3 OAK          1.8870     0.0000     1.1660 o          1 W70      -0.806800
      4 C4           1.9540    -0.0070    -1.2840 cc         1 W70       0.043400
      5 N3           3.3280     0.1150    -1.2950 ns         1 W70      -0.428100
      6 C2           4.0170     0.1110    -2.4480 c          1 W70       0.799500
      7 O2           5.2270     0.2200    -2.4150 o          1 W70      -0.703500
      8 N1           3.4050    -0.0120    -3.6390 ns         1 W70      -0.567500
      9 C6           2.0630    -0.1370    -3.7070 c          1 W70       0.701700
     10 O6           1.5050    -0.2490    -4.7820 o          1 W70      -0.660500
     11 C5           1.2870    -0.1400    -2.4600 cd         1 W70      -0.282400
     12 CAL         -0.2130    -0.2770    -2.4840 c3         1 W70      -0.004200
     13 CAM         -0.8500     1.1080    -2.6140 c3         1 W70      -0.028100
     14 CAN         -2.3500     0.9710    -2.6380 ca         1 W70      -0.055300
     15 CAS         -3.0080     0.8040    -3.8430 ca         1 W70      -0.114000
     16 CAR         -4.3840     0.6800    -3.8680 ca         1 W70      -0.147000
     17 CAO         -3.0660     1.0080    -1.4560 ca         1 W70      -0.114000
     18 CAP         -4.4410     0.8840    -1.4750 ca         1 W70      -0.147000
     19 CAQ         -5.1040     0.7220    -2.6840 ca         1 W70       0.066100
     20 OAT         -6.4580     0.6000    -2.7050 os         1 W70      -0.250200
     21 CAU         -7.2030     1.7210    -2.5220 ca         1 W70       0.149100
     22 CAW         -6.5830     2.9260    -2.2220 ca         1 W70      -0.185000
     23 CAV         -7.3430     4.0650    -2.0360 ca         1 W70      -0.098500
     24 CAZ         -8.7200     4.0050    -2.1490 ca         1 W70      -0.176000
     25 CAY         -9.3400     2.8050    -2.4480 ca         1 W70      -0.098500
     26 CAX         -8.5850     1.6650    -2.6400 ca         1 W70      -0.185000
     27 H2           3.8200     0.2080    -0.4290 hn         1 W70       0.377500
     28 H3           3.9470    -0.0120    -4.4800 hn         1 W70       0.341500
     29 H4          -0.5060    -0.8890    -3.3280 hc         1 W70       0.076200
     30 H5          -0.5480    -0.7440    -1.5660 hc         1 W70       0.076200
     31 H6          -0.5150     1.5750    -3.5320 hc         1 W70       0.052700
     32 H7          -0.5560     1.7210    -1.7700 hc         1 W70       0.052700
     33 H8          -2.4470     0.7950    -4.7700 ha         1 W70       0.153000
     34 H9          -4.8950     0.5040    -4.8070 ha         1 W70       0.134500
     35 H10         -2.5480     1.1500    -0.5150 ha         1 W70       0.153000
     36 H11         -4.9930     0.8380    -0.5440 ha         1 W70       0.134500
     37 H12         -5.5040     2.9740    -2.1330 ha         1 W70       0.147000
     38 H13         -6.8600     5.0060    -1.8020 ha         1 W70       0.125500
     39 H14         -9.3140     4.8980    -2.0010 ha         1 W70       0.121000
     40 H15        -10.4180     2.7610    -2.5380 ha         1 W70       0.125500
     41 H16         -9.0710     0.7260    -2.8740 ha         1 W70       0.147000
@<TRIPOS>BOND
     1    24    25 ar
     2    24    23 ar
     3    25    26 ar
     4    23    22 ar
     5    26    21 ar
     6    22    21 ar
     7    21    20 1
     8    16    15 ar
     9    16    19 ar
    10    20    19 1
    11    15    14 ar
    12    19    18 ar
    13    14    13 1
    14    14    17 ar
    15    18    17 ar
    16    13    12 1
    17    12    11 1
    18    10     9 2
    19    11     9 1
    20    11     4 2
    21     9     8 1
    22     1     2 1
    23     4     2 1
    24     4     5 1
    25     2     3 1
    26     8     6 1
    27     5     6 1
    28     6     7 2
    29     5    27 1
    30     8    28 1
    31    12    29 1
    32    12    30 1
    33    13    31 1
    34    13    32 1
    35    15    33 1
    36    16    34 1
    37    17    35 1
    38    18    36 1
    39    22    37 1
    40    23    38 1
    41    24    39 1
    42    25    40 1
    43    26    41 1
@<TRIPOS>SUBSTRUCTURE
     1 W70         1 TEMP              0 ****  ****    0 ROOT
