@<TRIPOS>MOLECULE
W71
   51    53     1     0     0
SMALL
bcc


@<TRIPOS>ATOM
      1 O1          0.0800    0.6120    0.0610 os        1 W71     -0.122100
      2 N2          1.3760    0.6790   -0.1610 nc        1 W71     -0.362300
      3 C3          2.0380    0.3900    0.9800 cd        1 W71      0.319600
      4 C31         3.4990    0.3510    1.1680 c3        1 W71     -0.132400
      5 C4          1.0580    0.1110    2.0330 cd        1 W71     -0.364600
      6 C5         -0.1660    0.2620    1.4140 cc        1 W71      0.265000
      7 C1C        -1.5690    0.1340    1.8250 c3        1 W71     -0.117700
      8 C2C        -2.2570    1.4850    1.9120 c3        1 W71     -0.078400
      9 C3C        -3.7120    1.3230    2.2960 c3        1 W71     -0.079400
     10 C4C        -4.4010    2.6670    2.3960 c3        1 W71     -0.078400
     11 C5C        -5.8580    2.5080    2.7760 c3        1 W71     -0.078400
     12 C6C        -6.5400    3.8540    2.8810 c3        1 W71     -0.086400
     13 C7C        -7.9990    3.6740    3.2620 c3        1 W71      0.128400
     14 O1B        -8.5430    4.9990    3.3470 os        1 W71     -0.327900
     15 C1B        -9.8760    5.0850    3.6860 ca        1 W71      0.153100
     16 C2B       -10.3790    6.3990    3.7610 ca        1 W71     -0.198000
     17 C3B       -11.7100    6.6000    4.0950 ca        1 W71     -0.049500
     18 C4B       -12.5510    5.5050    4.3560 ca        1 W71     -0.168900
     19 C5B       -12.0430    4.2030    4.2780 ca        1 W71     -0.049500
     20 C6B       -10.7070    3.9870    3.9430 ca        1 W71     -0.198000
     21 C2A       -13.9500    5.7240    4.7060 ce        1 W71      0.640200
     22 N3A       -14.8910    4.8580    4.9850 n2        1 W71     -0.636900
     23 C4A       -16.1190    5.5900    5.2700 c3        1 W71      0.072800
     24 C5A       -15.7550    7.0900    5.1120 c3        1 W71      0.089400
     25 O1A       -14.3540    7.0800    4.7520 os        1 W71     -0.459400
     26 H311        3.8040   -0.6680    1.5120 hc        1 W71      0.057367
     27 H312        4.0500    0.5900    0.2250 hc        1 W71      0.057367
     28 H313        3.7930    1.0950    1.9510 hc        1 W71      0.057367
     29 H4          1.2830   -0.1530    3.0590 ha        1 W71      0.173000
     30 H1C1       -2.1120   -0.5150    1.0830 hc        1 W71      0.066700
     31 H1C2       -1.6070   -0.3790    2.8230 hc        1 W71      0.066700
     32 H2C1       -1.7350    2.1270    2.6680 hc        1 W71      0.053700
     33 H2C2       -2.1790    2.0050    0.9210 hc        1 W71      0.053700
     34 H3C1       -4.2350    0.6880    1.5320 hc        1 W71      0.041200
     35 H3C2       -3.7860    0.7870    3.2790 hc        1 W71      0.041200
     36 H4C1       -4.3240    3.2040    1.4140 hc        1 W71      0.045200
     37 H4C2       -3.8800    3.3010    3.1610 hc        1 W71      0.045200
     38 H5C1       -5.9340    1.9670    3.7560 hc        1 W71      0.041700
     39 H5C2       -6.3800    1.8780    2.0070 hc        1 W71      0.041700
     40 H6C1       -6.4740    4.4010    1.9050 hc        1 W71      0.059200
     41 H6C2       -6.0300    4.4890    3.6520 hc        1 W71      0.059200
     42 H7C1       -8.5530    3.0920    2.4790 h1        1 W71      0.041700
     43 H7C2       -8.0990    3.1640    4.2550 h1        1 W71      0.041700
     44 H2B        -9.7100    7.2470    3.5550 ha        1 W71      0.148000
     45 H3B       -12.1160    7.6230    4.1570 ha        1 W71      0.156000
     46 H5B       -12.6960    3.3390    4.4800 ha        1 W71      0.156000
     47 H6B       -10.3250    2.9590    3.8860 ha        1 W71      0.148000
     48 H4A1      -16.9190    5.2810    4.5470 h1        1 W71      0.070700
     49 H4A2      -16.4650    5.3560    6.3100 h1        1 W71      0.070700
     50 H5A1      -15.8470    7.6660    6.0630 h1        1 W71      0.062700
     51 H5A2      -16.3050    7.5900    4.2810 h1        1 W71      0.062700
@<TRIPOS>BOND
     1    1    2 1   
     2    1    6 1   
     3    2    3 2   
     4    3    4 1   
     5    3    5 1   
     6    4   26 1   
     7    4   27 1   
     8    4   28 1   
     9    5    6 2   
    10    5   29 1   
    11    6    7 1   
    12    7    8 1   
    13    7   30 1   
    14    7   31 1   
    15    8    9 1   
    16    8   32 1   
    17    8   33 1   
    18    9   10 1   
    19    9   34 1   
    20    9   35 1   
    21   10   11 1   
    22   10   36 1   
    23   10   37 1   
    24   11   12 1   
    25   11   38 1   
    26   11   39 1   
    27   12   13 1   
    28   12   40 1   
    29   12   41 1   
    30   13   14 1   
    31   13   42 1   
    32   13   43 1   
    33   14   15 1   
    34   15   16 ar  
    35   15   20 ar  
    36   16   17 ar  
    37   16   44 1   
    38   17   18 ar  
    39   17   45 1   
    40   18   19 ar  
    41   18   21 1   
    42   19   20 ar  
    43   19   46 1   
    44   20   47 1   
    45   21   22 2   
    46   21   25 1   
    47   22   23 1   
    48   23   24 1   
    49   23   48 1   
    50   23   49 1   
    51   24   25 1   
    52   24   50 1   
    53   24   51 1   
@<TRIPOS>SUBSTRUCTURE
     1 W71         1 TEMP              0 ****  ****    0 ROOT
