@<TRIPOS>MOLECULE
molecule
   41    41     1     0     0
SMALL
bcc


@<TRIPOS>ATOM
      1 C1           0.0000     0.0000     0.0000 c3         1 W72       0.124100
      2 O1          -0.4980     1.1730    -0.6470 oh         1 W72      -0.614800
      3 C2           1.5430     0.0000     0.0000 c3         1 W72       0.119100
      4 O2           2.0390    -1.1720    -0.6500 oh         1 W72      -0.587800
      5 C3           1.9440     0.0000     1.4910 c3         1 W72       0.115800
      6 N4           0.7700    -0.5790     2.1960 n3         1 W72      -0.631600
      7 C5          -0.4010     0.0000     1.4910 c3         1 W72       0.141500
      8 C6          -1.6400    -0.8710     1.7100 c3         1 W72       0.156400
      9 O6          -1.4240    -2.1600     1.1340 oh         1 W72      -0.593800
     10 C7           0.7730    -0.0160     3.5530 c3         1 W72       0.107800
     11 C8           1.8750    -0.6820     4.3800 c3         1 W72       0.122100
     12 O8           1.6350    -2.0890     4.4490 oh         1 W72      -0.565800
     13 C9           1.8770    -0.0950     5.7930 c3         1 W72       0.144100
     14 O9           0.5760    -0.2280     6.3660 oh         1 W72      -0.604800
     15 C10          2.8940    -0.8460     6.6550 c3         1 W72       0.139100
     16 O10          2.6070    -2.2450     6.6200 oh         1 W72      -0.580800
     17 C11          2.8080    -0.3440     8.0980 c3         1 W72       0.029100
     18 O11          1.4640    -0.4660     8.5660 oh         1 W72      -0.591800
     19 C12          3.7200    -1.1670     8.9710 c          1 W72       0.869600
     20 O12          5.0490    -1.1240     8.7810 o          1 W72      -0.840800
     21 O13          3.2560    -1.8630     9.8420 o          1 W72      -0.840800
     22 H1          -0.3730    -0.8930    -0.4870 h1         1 W72       0.083700
     23 HO1         -0.8320     0.9440    -1.4990 ho         1 W72       0.399000
     24 H2           1.9170     0.8930    -0.4870 h1         1 W72       0.041700
     25 HO2          2.6190    -0.9210    -1.3500 ho         1 W72       0.391000
     26 H31          2.8190    -0.6200     1.6450 h1         1 W72       0.053700
     27 H32          2.1250     1.0120     1.8310 h1         1 W72       0.053700
     28 H5          -0.5800     1.0130     1.8310 h1         1 W72       0.057700
     29 H61         -1.8250    -0.9760     2.7720 h1         1 W72       0.025700
     30 H62         -2.4970    -0.4040     1.2390 h1         1 W72       0.025700
     31 HO6         -2.2090    -2.6760     1.2160 ho         1 W72       0.393000
     32 H71          0.9560     1.0500     3.5010 h1         1 W72       0.049200
     33 H72         -0.1870    -0.1950     4.0200 h1         1 W72       0.049200
     34 H8           2.8350    -0.5020     3.9130 h1         1 W72       0.019700
     35 HO8          2.2310    -2.5380     3.8740 ho         1 W72       0.394000
     36 H9           2.1460     0.9530     5.7480 h1         1 W72       0.060700
     37 HO9          0.4270    -1.1280     6.6050 ho         1 W72       0.441000
     38 H10          3.8920    -0.6720     6.2710 h1         1 W72       0.045700
     39 HO10         3.4090    -2.7280     6.5100 ho         1 W72       0.402000
     40 H11          3.1120     0.6960     8.1370 h1         1 W72       0.015700
     41 HO11         1.3170     0.1500     9.2650 ho         1 W72       0.384000
@<TRIPOS>BOND
     1     1     2 1
     2     1     3 1
     3     1     7 1
     4     1    22 1
     5     2    23 1
     6     3     4 1
     7     3     5 1
     8     3    24 1
     9     4    25 1
    10     5     6 1
    11     5    26 1
    12     5    27 1
    13     6     7 1
    14     6    10 1
    15     7     8 1
    16     7    28 1
    17     8     9 1
    18     8    29 1
    19     8    30 1
    20     9    31 1
    21    10    11 1
    22    10    32 1
    23    10    33 1
    24    11    12 1
    25    11    13 1
    26    11    34 1
    27    12    35 1
    28    13    14 1
    29    13    15 1
    30    13    36 1
    31    14    37 1
    32    15    16 1
    33    15    17 1
    34    15    38 1
    35    16    39 1
    36    17    18 1
    37    17    19 1
    38    17    40 1
    39    18    41 1
    40    19    20 1
    41    19    21 1
@<TRIPOS>SUBSTRUCTURE
     1 W72         1 TEMP              0 ****  ****    0 ROOT
