@<TRIPOS>MOLECULE
molecule
   42    45     1     0     0
SMALL
bcc


@<TRIPOS>ATOM
      1 OAJ          0.0000     0.0000     0.0000 o          1 W73      -0.805800
      2 CAI          1.3460     0.0000     0.0000 c          1 W73       0.878800
      3 OAK          1.9530     0.0000     1.0510 o          1 W73      -0.805800
      4 C4           2.0870     0.0020    -1.2840 cc         1 W73       0.042400
      5 N3           1.4120     0.1410    -2.4770 ns         1 W73      -0.427100
      6 C2           2.0650     0.1450    -3.6500 c          1 W73       0.798500
      7 O2           1.4310     0.2700    -4.6800 o          1 W73      -0.705500
      8 N1           3.4010     0.0140    -3.7160 ns         1 W73      -0.567500
      9 C6           4.1300    -0.1270    -2.5900 c          1 W73       0.701700
     10 O6           5.3400    -0.2450    -2.6470 o          1 W73      -0.662500
     11 C5           3.4400    -0.1290    -1.2950 cd         1 W73      -0.283400
     12 CAL          4.2110    -0.2830    -0.0090 c3         1 W73       0.001800
     13 CAM          4.5860     1.0990     0.5290 c3         1 W73      -0.025100
     14 CAN          5.4350     0.9440     1.7650 ca         1 W73      -0.035300
     15 CAS          6.8290     0.7460     1.6250 ca         1 W73       0.005000
     16 CAU          7.4280     0.6930     0.3600 ca         1 W73      -0.088000
     17 CAT          8.7750     0.5010     0.2540 ca         1 W73      -0.169000
     18 CAW          9.5650     0.3560     1.3880 ca         1 W73      -0.168000
     19 CAV          9.0120     0.4050     2.6350 ca         1 W73      -0.131000
     20 CAR          7.6370     0.5990     2.7760 ca         1 W73      -0.010000
     21 CAQ          7.0000     0.6560     4.0950 ca         1 W73      -0.037000
     22 CBA          7.7410     0.5190     5.2700 ca         1 W73      -0.115000
     23 CAZ          7.1090     0.5790     6.4800 ca         1 W73      -0.145000
     24 CAY          5.7350     0.7750     6.5550 ca         1 W73      -0.137000
     25 CAX          4.9850     0.9130     5.4230 ca         1 W73      -0.114000
     26 CAP          5.6020     0.8570     4.1670 ca         1 W73      -0.033000
     27 CAO          4.8510     1.0010     2.9780 ca         1 W73      -0.107000
     28 H2           3.8580     0.0210    -4.6060 hn         1 W73       0.341500
     29 H4           3.5990    -0.8010     0.7190 hc         1 W73       0.075200
     30 H5           5.1130    -0.8540    -0.1950 hc         1 W73       0.075200
     31 H6           3.6850     1.6470     0.7770 hc         1 W73       0.053700
     32 H7           5.1420     1.6420    -0.2260 hc         1 W73       0.053700
     33 H8           7.3290     1.1060    -0.6370 ha         1 W73       0.163000
     34 H9           9.3730     0.4560    -0.6480 ha         1 W73       0.121000
     35 H10         10.6310     0.2180     1.2500 ha         1 W73       0.111000
     36 H11          9.8590     0.2750     3.2970 ha         1 W73       0.125000
     37 H12          8.8120     0.3660     5.2230 ha         1 W73       0.124000
     38 H13          7.6850     0.4720     7.3910 ha         1 W73       0.115000
     39 H14          5.2540     0.8190     7.5240 ha         1 W73       0.118000
     40 H15          3.9150     1.0650     5.4970 ha         1 W73       0.138000
     41 H16          3.8780     1.3930     3.2520 ha         1 W73       0.152000
     42 H17          0.4160     0.2410    -2.4680 hn         1 W73       0.377500
@<TRIPOS>BOND
     1    18    17 ar
     2    18    19 ar
     3    17    16 ar
     4    19    20 ar
     5    16    15 ar
     6    20    15 ar
     7    20    21 ar
     8    15    14 ar
     9    22    21 ar
    10    22    23 ar
    11    21    26 ar
    12    14    13 1
    13    14    27 ar
    14    23    24 ar
    15    13    12 1
    16    26    27 ar
    17    26    25 ar
    18    24    25 ar
    19    12    11 1
    20    10     9 2
    21    11     9 1
    22    11     4 2
    23     9     8 1
    24     3     2 1
    25     4     2 1
    26     4     5 1
    27     2     1 1
    28     8     6 1
    29     5     6 1
    30     6     7 2
    31     8    28 1
    32    12    29 1
    33    12    30 1
    34    13    31 1
    35    13    32 1
    36    16    33 1
    37    17    34 1
    38    18    35 1
    39    19    36 1
    40    22    37 1
    41    23    38 1
    42    24    39 1
    43    25    40 1
    44    27    41 1
    45     5    42 1
@<TRIPOS>SUBSTRUCTURE
     1 W73         1 TEMP              0 ****  ****    0 ROOT
