@<TRIPOS>MOLECULE
W74
   34    35     1     0     0
SMALL
bcc


@<TRIPOS>ATOM
      1 OAJ          0.0000     0.0000     0.0000 o          1 W74      -0.854800
      2 CAI          1.3470     0.0000     0.0000 c          1 W74       0.976800
      3 OAK          1.9550     0.0000     1.0510 o          1 W74      -0.854800
      4 C4           2.0890     0.0020    -1.2850 cc         1 W74      -0.130600
      5 N3           1.4110    -0.1220    -2.4780 ns         1 W74       0.053900
      6 C2           2.0650    -0.1240    -3.6520 c          1 W74       0.560500
      7 O2           1.4300    -0.2350    -4.6820 o          1 W74      -0.758500
      8 N1           3.4020    -0.0040    -3.7170 ns         1 W74      -0.138500
      9 C6           4.1330     0.1210    -2.5890 c          1 W74       0.618700
     10 O6           5.3440     0.2310    -2.6450 o          1 W74      -0.700500
     11 C5           3.4410     0.1300    -1.2950 cd         1 W74      -0.273400
     12 CAL          4.2120     0.2740    -0.0080 c3         1 W74       0.022800
     13 CAM          4.6420    -1.1090     0.4860 c3         1 W74       0.033900
     14 CAN          5.4140    -0.9650     1.7730 ca         1 W74      -0.077300
     15 CAO          6.7850    -0.8000     1.7400 ca         1 W74      -0.055500
     16 CAP          7.4960    -0.6670     2.9180 ca         1 W74      -0.167000
     17 CAQ          6.8300    -0.7010     4.1340 ca         1 W74       0.101100
     18 OAT          7.5260    -0.5710     5.2940 os         1 W74      -0.320900
     19 CAU          6.7750    -0.6150     6.5100 c3         1 W74       0.752700
     20 FAW          7.6410    -0.4670     7.5980 f          1 W74      -0.202300
     21 FAX          5.8370     0.4230     6.5160 f          1 W74      -0.202300
     22 FAV          6.1130    -1.8430     6.6040 f          1 W74      -0.202300
     23 CAR          5.4530    -0.8660     4.1650 ca         1 W74      -0.167000
     24 CAS          4.7480    -0.9930     2.9840 ca         1 W74      -0.055500
     25 H2           3.8590    -0.0080    -4.6070 hn         1 W74       0.188500
     26 H4           3.5840     0.7460     0.7380 hc         1 W74       0.054700
     27 H5           5.0900     0.8850    -0.1800 hc         1 W74       0.054700
     28 H6           5.2690    -1.5800    -0.2610 hc         1 W74       0.023200
     29 H7           3.7640    -1.7190     0.6580 hc         1 W74       0.023200
     30 H8           7.3040    -0.7730     0.7890 ha         1 W74       0.127500
     31 H9           8.5710    -0.5370     2.8910 ha         1 W74       0.115000
     32 H10          4.9310    -0.8910     5.1130 ha         1 W74       0.115000
     33 H11          3.6720    -1.1220     3.0080 ha         1 W74       0.127500
     34 H12          0.4140    -0.2130    -2.4700 hn         1 W74       0.212500
@<TRIPOS>BOND
     1     1     2 1   
     2     2     3 1   
     3     2     4 1   
     4     4     5 1   
     5     4    11 2   
     6     5     6 1   
     7     5    34 1   
     8     6     7 2   
     9     6     8 1   
    10     8     9 1   
    11     8    25 1   
    12     9    10 2   
    13     9    11 1   
    14    11    12 1   
    15    12    13 1   
    16    12    26 1   
    17    12    27 1   
    18    13    14 1   
    19    13    28 1   
    20    13    29 1   
    21    14    15 ar  
    22    14    24 ar  
    23    15    16 ar  
    24    15    30 1   
    25    16    17 ar  
    26    16    31 1   
    27    17    18 1   
    28    17    23 ar  
    29    18    19 1   
    30    19    20 1   
    31    19    21 1   
    32    19    22 1   
    33    23    24 ar  
    34    23    32 1   
    35    24    33 1   
@<TRIPOS>SUBSTRUCTURE
     1 W74         1 TEMP              0 ****  ****    0 ROOT
