@<TRIPOS>MOLECULE
molecule
   34    35     1     0     0
SMALL
bcc


@<TRIPOS>ATOM
      1 OAJ          0.0000     0.0000     0.0000 o          1 W74      -0.806800
      2 CAI          1.3470     0.0000     0.0000 c          1 W74       0.880800
      3 OAK          1.9550     0.0000     1.0510 o          1 W74      -0.806800
      4 C4           2.0890     0.0020    -1.2850 cc         1 W74       0.043400
      5 N3           1.4110    -0.1220    -2.4780 ns         1 W74      -0.428100
      6 C2           2.0650    -0.1240    -3.6520 c          1 W74       0.799500
      7 O2           1.4300    -0.2350    -4.6820 o          1 W74      -0.703500
      8 N1           3.4020    -0.0040    -3.7170 ns         1 W74      -0.567500
      9 C6           4.1330     0.1210    -2.5890 c          1 W74       0.701700
     10 O6           5.3440     0.2310    -2.6450 o          1 W74      -0.661500
     11 C5           3.4410     0.1300    -1.2950 cd         1 W74      -0.283400
     12 CAL          4.2120     0.2740    -0.0080 c3         1 W74      -0.004200
     13 CAM          4.6420    -1.1090     0.4860 c3         1 W74      -0.025100
     14 CAN          5.4140    -0.9650     1.7730 ca         1 W74      -0.074300
     15 CAO          6.7850    -0.8000     1.7400 ca         1 W74      -0.089500
     16 CAP          7.4960    -0.6670     2.9180 ca         1 W74      -0.176000
     17 CAQ          6.8300    -0.7010     4.1340 ca         1 W74       0.092100
     18 OAT          7.5260    -0.5710     5.2940 os         1 W74      -0.347900
     19 CAU          6.7750    -0.6150     6.5100 c3         1 W74       0.793700
     20 FAW          7.6410    -0.4670     7.5980 f          1 W74      -0.210967
     21 FAX          5.8370     0.4230     6.5160 f          1 W74      -0.210967
     22 FAV          6.1130    -1.8430     6.6040 f          1 W74      -0.210967
     23 CAR          5.4530    -0.8660     4.1650 ca         1 W74      -0.176000
     24 CAS          4.7480    -0.9930     2.9840 ca         1 W74      -0.089500
     25 H2           3.8590    -0.0080    -4.6070 hn         1 W74       0.341500
     26 H4           3.5840     0.7460     0.7380 hc         1 W74       0.075200
     27 H5           5.0900     0.8850    -0.1800 hc         1 W74       0.075200
     28 H6           5.2690    -1.5800    -0.2610 hc         1 W74       0.052200
     29 H7           3.7640    -1.7190     0.6580 hc         1 W74       0.052200
     30 H8           7.3040    -0.7730     0.7890 ha         1 W74       0.156000
     31 H9           8.5710    -0.5370     2.8910 ha         1 W74       0.136000
     32 H10          4.9310    -0.8910     5.1130 ha         1 W74       0.136000
     33 H11          3.6720    -1.1220     3.0080 ha         1 W74       0.156000
     34 H12          0.4140    -0.2130    -2.4700 hn         1 W74       0.377500
@<TRIPOS>BOND
     1     7     6 2
     2     6     5 1
     3     6     8 1
     4     5     4 1
     5     8     9 1
     6     2     4 1
     7     2     3 1
     8     2     1 1
     9     4    11 2
    10     9    11 1
    11     9    10 2
    12    11    12 1
    13    21    19 1
    14    12    13 1
    15    19    22 1
    16    19    20 1
    17    19    18 1
    18    15    16 ar
    19    15    14 ar
    20    16    17 ar
    21    13    14 1
    22    14    24 ar
    23    17    18 1
    24    17    23 ar
    25    24    23 ar
    26     8    25 1
    27    12    26 1
    28    12    27 1
    29    13    28 1
    30    13    29 1
    31    15    30 1
    32    16    31 1
    33    23    32 1
    34    24    33 1
    35     5    34 1
@<TRIPOS>SUBSTRUCTURE
     1 W74         1 TEMP              0 ****  ****    0 ROOT
