@<TRIPOS>MOLECULE
W75
   38    39     1     0     0
SMALL
bcc


@<TRIPOS>ATOM
      1 OAJ          0.0000     0.0000     0.0000 o          1 W75      -0.853300
      2 CAI          1.3460     0.0000     0.0000 c          1 W75       0.974800
      3 OAK          1.9530     0.0000     1.0520 o          1 W75      -0.853300
      4 C4           2.0880    -0.0010    -1.2840 cc         1 W75      -0.132600
      5 N3           1.4100    -0.1250    -2.4780 ns         1 W75       0.053900
      6 C2           2.0640    -0.1270    -3.6520 c          1 W75       0.560500
      7 O2           1.4290    -0.2400    -4.6820 o          1 W75      -0.760500
      8 N1           3.4020    -0.0090    -3.7160 ns         1 W75      -0.139500
      9 C6           4.1320     0.1170    -2.5890 c          1 W75       0.617700
     10 O6           5.3430     0.2250    -2.6450 o          1 W75      -0.698500
     11 C5           3.4400     0.1280    -1.2940 cd         1 W75      -0.270400
     12 CAL          4.2120     0.2720    -0.0080 c3         1 W75       0.023800
     13 CAM          4.6400    -1.1100     0.4870 c3         1 W75       0.028900
     14 CAN          5.4110    -0.9660     1.7740 ca         1 W75       0.014700
     15 CAS          6.7840    -0.8010     1.7400 ca         1 W75      -0.172000
     16 CAO          4.7460    -0.9930     2.9840 ca         1 W75      -0.172000
     17 CAP          5.4540    -0.8590     4.1710 ca         1 W75       0.172100
     18 OAU          4.7990    -0.8850     5.3610 os         1 W75      -0.306400
     19 CAW          5.5910    -0.7420     6.5410 c3         1 W75       0.244700
     20 CAQ          6.8310    -0.6990     4.1400 ca         1 W75      -0.340000
     21 CAR          7.4960    -0.6680     2.9240 ca         1 W75       0.172100
     22 OAT          8.8450    -0.5060     2.8910 os         1 W75      -0.306400
     23 CAV          9.5140    -0.3750     4.1470 c3         1 W75       0.244700
     24 H2           3.8590    -0.0150    -4.6070 hn         1 W75       0.187500
     25 H4           5.0900     0.8820    -0.1810 hc         1 W75       0.055200
     26 H5           3.5850     0.7450     0.7380 hc         1 W75       0.055200
     27 H6           3.7620    -1.7210     0.6590 hc         1 W75       0.024200
     28 H7           5.2680    -1.5820    -0.2590 hc         1 W75       0.024200
     29 H8           7.3030    -0.7770     0.7900 ha         1 W75       0.138000
     30 H9           3.6730    -1.1400     3.0080 ha         1 W75       0.138000
     31 H10          4.9500    -0.7800     7.4130 h1         1 W75      -0.010300
     32 H11          6.3150    -1.5460     6.5900 h1         1 W75      -0.010300
     33 H12          6.1090     0.2090     6.5150 h1         1 W75      -0.010300
     34 H13          7.3860    -0.5940     5.0640 ha         1 W75       0.126000
     35 H14         10.5770    -0.2540     3.9790 h1         1 W75      -0.010300
     36 H15          9.3410    -1.2640     4.7420 h1         1 W75      -0.010300
     37 H16          9.1300     0.4910     4.6720 h1         1 W75      -0.010300
     38 H17          0.4130    -0.2150    -2.4700 hn         1 W75       0.212500
@<TRIPOS>BOND
     1     1     2 1   
     2     2     3 1   
     3     2     4 1   
     4     4     5 1   
     5     4    11 2   
     6     5     6 1   
     7     5    38 1   
     8     6     7 2   
     9     6     8 1   
    10     8     9 1   
    11     8    24 1   
    12     9    10 2   
    13     9    11 1   
    14    11    12 1   
    15    12    13 1   
    16    12    25 1   
    17    12    26 1   
    18    13    14 1   
    19    13    27 1   
    20    13    28 1   
    21    14    15 ar  
    22    14    16 ar  
    23    15    21 ar  
    24    15    29 1   
    25    16    17 ar  
    26    16    30 1   
    27    17    18 1   
    28    17    20 ar  
    29    18    19 1   
    30    19    31 1   
    31    19    32 1   
    32    19    33 1   
    33    20    21 ar  
    34    20    34 1   
    35    21    22 1   
    36    22    23 1   
    37    23    35 1   
    38    23    36 1   
    39    23    37 1   
@<TRIPOS>SUBSTRUCTURE
     1 W75         1 TEMP              0 ****  ****    0 ROOT
