@<TRIPOS>MOLECULE
W76
   34    35     1     0     0
SMALL
bcc


@<TRIPOS>ATOM
      1 OAJ          0.0000     0.0000     0.0000 o          1 W76      -0.853300
      2 CAI          1.3470     0.0000     0.0000 c          1 W76       0.974800
      3 OAK          1.9540     0.0000     1.0510 o          1 W76      -0.853300
      4 C4           2.0880     0.0020    -1.2840 cc         1 W76      -0.132600
      5 N3           1.4110    -0.1220    -2.4780 ns         1 W76       0.054900
      6 C2           2.0650    -0.1230    -3.6520 c          1 W76       0.560500
      7 O2           1.4300    -0.2360    -4.6820 o          1 W76      -0.760500
      8 N1           3.4030    -0.0040    -3.7160 ns         1 W76      -0.140500
      9 C6           4.1340     0.1220    -2.5890 c          1 W76       0.618700
     10 O6           5.3440     0.2300    -2.6440 o          1 W76      -0.699500
     11 C5           3.4410     0.1310    -1.2940 cd         1 W76      -0.272400
     12 CAL          4.2130     0.2690    -0.0070 c3         1 W76       0.022800
     13 CAM          4.6410    -1.1170     0.4820 c3         1 W76       0.030900
     14 CAN          5.4130    -0.9780     1.7690 ca         1 W76      -0.021300
     15 CAS          4.7480    -1.0100     2.9790 ca         1 W76      -0.121000
     16 CAO          6.7870    -0.8250     1.7370 ca         1 W76      -0.149000
     17 CAP          7.4980    -0.6980     2.9160 ca         1 W76      -0.076000
     18 CAQ          6.8370    -0.7240     4.1290 ca         1 W76      -0.236000
     19 CAR          5.4590    -0.8820     4.1630 ca         1 W76       0.136100
     20 OAT          4.8080    -0.9130     5.3560 os         1 W76      -0.303900
     21 CAU          5.6040    -0.7760     6.5350 c3         1 W76       0.243700
     22 H2           3.8600    -0.0080    -4.6060 hn         1 W76       0.187500
     23 H4           3.5870     0.7380     0.7410 hc         1 W76       0.054700
     24 H5           5.0920     0.8790    -0.1770 hc         1 W76       0.054700
     25 H6           3.7630    -1.7270     0.6520 hc         1 W76       0.023200
     26 H7           5.2680    -1.5860    -0.2660 hc         1 W76       0.023200
     27 H8           3.6720    -1.1340     3.0040 ha         1 W76       0.150000
     28 H9           7.3070    -0.8050     0.7870 ha         1 W76       0.110000
     29 H10          8.5740    -0.5760     2.8890 ha         1 W76       0.087000
     30 H11          7.3940    -0.6240     5.0520 ha         1 W76       0.107000
     31 H12          6.1230     0.1750     6.5120 h1         1 W76      -0.010300
     32 H13          6.3270    -1.5810     6.5780 h1         1 W76      -0.010300
     33 H14          4.9650    -0.8170     7.4090 h1         1 W76      -0.010300
     34 H15          0.4150    -0.2130    -2.4710 hn         1 W76       0.212500
@<TRIPOS>BOND
     1     1     2 1   
     2     2     3 1   
     3     2     4 1   
     4     4     5 1   
     5     4    11 2   
     6     5     6 1   
     7     5    34 1   
     8     6     7 2   
     9     6     8 1   
    10     8     9 1   
    11     8    22 1   
    12     9    10 2   
    13     9    11 1   
    14    11    12 1   
    15    12    13 1   
    16    12    23 1   
    17    12    24 1   
    18    13    14 1   
    19    13    25 1   
    20    13    26 1   
    21    14    15 ar  
    22    14    16 ar  
    23    15    19 ar  
    24    15    27 1   
    25    16    17 ar  
    26    16    28 1   
    27    17    18 ar  
    28    17    29 1   
    29    18    19 ar  
    30    18    30 1   
    31    19    20 1   
    32    20    21 1   
    33    21    31 1   
    34    21    32 1   
    35    21    33 1   
@<TRIPOS>SUBSTRUCTURE
     1 W76         1 TEMP              0 ****  ****    0 ROOT
