@<TRIPOS>MOLECULE
W77
   25    26     1     0     0
SMALL
bcc


@<TRIPOS>ATOM
      1 C            0.0000     0.0000     0.0000 ca         1 W77      -0.202300
      2 N           -0.0190     0.0010     2.3500 nb         1 W77      -0.567000
      3 O            3.5830     1.2000    -0.5860 o          1 W77      -0.630100
      4 Cl           5.5530     2.2050    -1.8410 cl         1 W77       0.051600
      5 C1           1.3850     0.0000     0.0000 ca         1 W77      -0.070000
      6 Cl1         10.1090     1.0200     0.8060 cl         1 W77      -0.008400
      7 C2           2.0460     0.0000     1.2260 ca         1 W77      -0.213700
      8 C3           1.2980     0.0000     2.3950 ca         1 W77       0.377200
      9 C4          -0.6750     0.0070     1.2060 ca         1 W77       0.389200
     10 C5           4.1530     0.6680     0.3460 c          1 W77       0.586700
     11 C6           5.6240     0.7560     0.4590 ca         1 W77      -0.164600
     12 C7           6.2820     0.1450     1.5290 ca         1 W77      -0.062000
     13 C8           7.6530     0.2290     1.6300 ca         1 W77      -0.110000
     14 C9           8.3810     0.9180     0.6720 ca         1 W77      -0.005600
     15 C10          7.7350     1.5250    -0.3920 ca         1 W77      -0.113000
     16 C11          6.3620     1.4430    -0.5070 ca         1 W77       0.018400
     17 H           -0.5480     0.0030    -0.9350 ha         1 W77       0.115000
     18 H1           1.9400    -0.0060    -0.9300 ha         1 W77       0.150000
     19 HN1          3.9190    -0.5240     1.9870 hn         1 W77       0.173500
     20 H3           1.8010    -0.0020     3.3540 h4         1 W77      -0.021900
     21 H4          -1.7580     0.0070     1.2120 h4         1 W77      -0.019900
     22 H7           5.7150    -0.3930     2.2790 ha         1 W77       0.106000
     23 H8           8.1650    -0.2440     2.4590 ha         1 W77       0.120000
     24 H10          8.3090     2.0660    -1.1350 ha         1 W77       0.130000
     25 N1           3.4450    -0.0000     1.2770 ns         1 W77      -0.027100
@<TRIPOS>BOND
     1     1     5 ar  
     2     1     9 ar  
     3     1    17 1   
     4     2     8 ar  
     5     2     9 ar  
     6     3    10 2   
     7     4    16 1   
     8     5     7 ar  
     9     5    18 1   
    10     6    14 1   
    11     7     8 ar  
    12     7    25 1   
    13     8    20 1   
    14     9    21 1   
    15    10    11 1   
    16    10    25 1   
    17    11    12 ar  
    18    11    16 ar  
    19    12    13 ar  
    20    12    22 1   
    21    13    14 ar  
    22    13    23 1   
    23    14    15 ar  
    24    15    16 ar  
    25    15    24 1   
    26    19    25 1   
@<TRIPOS>SUBSTRUCTURE
     1 W77         1 TEMP              0 ****  ****    0 ROOT
