@<TRIPOS>MOLECULE
molecule
   25    26     1     0     0
SMALL
bcc


@<TRIPOS>ATOM
      1 C            0.0000     0.0000     0.0000 ca         1 W77      -0.237300
      2 N           -0.0190     0.0010     2.3500 nb         1 W77      -0.674000
      3 O            3.5830     1.2000    -0.5860 o          1 W77      -0.574100
      4 Cl           5.5530     2.2050    -1.8410 cl         1 W77      -0.044400
      5 C1           1.3850     0.0000     0.0000 ca         1 W77      -0.092000
      6 Cl1         10.1090     1.0200     0.8060 cl         1 W77      -0.087400
      7 C2           2.0460     0.0000     1.2260 ca         1 W77      -0.071700
      8 C3           1.2980     0.0000     2.3950 ca         1 W77       0.391200
      9 C4          -0.6750     0.0070     1.2060 ca         1 W77       0.401200
     10 C5           4.1530     0.6680     0.3460 c          1 W77       0.672700
     11 C6           5.6240     0.7560     0.4590 ca         1 W77      -0.148600
     12 C7           6.2820     0.1450     1.5290 ca         1 W77      -0.087000
     13 C8           7.6530     0.2290     1.6300 ca         1 W77      -0.132000
     14 C9           8.3810     0.9180     0.6720 ca         1 W77       0.058400
     15 C10          7.7350     1.5250    -0.3920 ca         1 W77      -0.129000
     16 C11          6.3620     1.4430    -0.5070 ca         1 W77       0.088400
     17 H           -0.5480     0.0030    -0.9350 ha         1 W77       0.143000
     18 H1           1.9400    -0.0060    -0.9300 ha         1 W77       0.173000
     19 HN1          3.9190    -0.5240     1.9870 hn         1 W77       0.325500
     20 H3           1.8010    -0.0020     3.3540 h4         1 W77       0.020100
     21 H4          -1.7580     0.0070     1.2120 h4         1 W77       0.024100
     22 H7           5.7150    -0.3930     2.2790 ha         1 W77       0.137000
     23 H8           8.1650    -0.2440     2.4590 ha         1 W77       0.152000
     24 H10          8.3090     2.0660    -1.1350 ha         1 W77       0.164000
     25 N1           3.4450    -0.0000     1.2770 ns         1 W77      -0.473100
@<TRIPOS>BOND
     1     9     1 ar
     2     5     1 ar
     3     1    17 1
     4     8     2 ar
     5     2     9 ar
     6    10     3 2
     7     4    16 1
     8     7     5 ar
     9     5    18 1
    10    25    10 1
    11    25     7 1
    12    25    19 1
    13     6    14 1
    14     8     7 ar
    15     8    20 1
    16     9    21 1
    17    11    10 1
    18    16    11 ar
    19    11    12 ar
    20    13    12 ar
    21    12    22 1
    22    14    13 ar
    23    13    23 1
    24    15    14 ar
    25    15    16 ar
    26    15    24 1
@<TRIPOS>SUBSTRUCTURE
     1 W77         1 TEMP              0 ****  ****    0 ROOT
