@<TRIPOS>MOLECULE
W79
   49    51     1     0     0
SMALL
bcc


@<TRIPOS>ATOM
      1 N02          0.0000     0.0000     0.0000 nv         1 W79      -0.544500
      2 C02          1.3890     0.0000     0.0000 ca         1 W79       0.515200
      3 C03          2.0790     0.0000     1.2080 ca         1 W79      -0.306300
      4 C04          3.4620    -0.0060     1.1930 ca         1 W79      -0.006300
      5 C07          4.2460    -0.0060     2.4800 c3         1 W79       0.060200
      6 C05          4.1120    -0.0130    -0.0350 ca         1 W79      -0.285300
      7 N01          2.0460    -0.0070    -1.1500 nb         1 W79      -0.651000
      8 C06          3.3640    -0.0130    -1.1950 ca         1 W79       0.424600
      9 C08          4.0630    -0.0200    -2.5300 c3         1 W79      -0.068700
     10 C09          3.5620    -1.2010    -3.3620 c3         1 W79       0.036900
     11 C13          4.2620    -1.2090    -4.6970 ca         1 W79      -0.203600
     12 C14          5.4490    -1.8990    -4.8610 ca         1 W79      -0.071000
     13 C12          3.7200    -0.5300    -5.7740 ca         1 W79       0.403200
     14 N11          4.3200    -0.5280    -6.9470 nb         1 W79      -0.577000
     15 C16          5.4550    -1.1660    -7.1490 ca         1 W79       0.395200
     16 C15          6.0610    -1.8770    -6.1170 cp         1 W79      -0.144300
     17 C21          7.3400    -2.5960    -6.3460 cp         1 W79      -0.028000
     18 C26          7.9480    -2.5590    -7.5990 ca         1 W79      -0.095000
     19 C22          7.9390    -3.3050    -5.3070 ca         1 W79      -0.099000
     20 C23          9.1270    -3.9710    -5.5250 ca         1 W79      -0.099000
     21 C24          9.7250    -3.9340    -6.7720 ca         1 W79      -0.076000
     22 C25          9.1370    -3.2280    -7.8060 ca         1 W79      -0.091300
     23 C27          9.7960    -3.1890    -9.1610 c3         1 W79       0.200100
     24 N28         10.7130    -2.0440    -9.2260 n7         1 W79      -0.582200
     25 C29         11.3750    -1.9730   -10.5350 c3         1 W79       0.178100
     26 H1          -0.5000     0.3190     0.8060 hn         1 W79       0.270300
     27 H2          -0.5000    -0.3130    -0.8080 hn         1 W79       0.270300
     28 H3           1.5470    -0.1750     2.1360 ha         1 W79       0.120000
     29 H4           3.6020     0.2980     3.2960 hc         1 W79       0.010367
     30 H5           4.6260    -1.0020     2.6710 hc         1 W79       0.010367
     31 H6           5.0750     0.6870     2.3980 hc         1 W79       0.010367
     32 H7           5.1940    -0.0180    -0.0810 ha         1 W79       0.120000
     33 H8           5.1320    -0.1130    -2.3780 hc         1 W79       0.025200
     34 H9           3.8520     0.9050    -3.0530 hc         1 W79       0.025200
     35 H10          2.4940    -1.1080    -3.5150 hc         1 W79       0.028200
     36 H11          3.7730    -2.1260    -2.8390 hc         1 W79       0.028200
     37 H12          5.8940    -2.4430    -4.0360 ha         1 W79       0.120000
     38 H13          2.7870     0.0080    -5.6510 h4         1 W79      -0.014900
     39 H14          5.9180    -1.1410    -8.1280 h4         1 W79      -0.013900
     40 H15          7.4880    -2.0060    -8.4090 ha         1 W79       0.113000
     41 H16          7.4720    -3.3340    -4.3300 ha         1 W79       0.110000
     42 H17          9.5930    -4.5240    -4.7180 ha         1 W79       0.103000
     43 H18         10.6580    -4.4590    -6.9390 ha         1 W79       0.109000
     44 H19          9.0380    -3.0890    -9.9280 h1         1 W79       0.009700
     45 H20         10.3510    -4.1060    -9.3190 h1         1 W79       0.009700
     46 H21         10.2030    -1.1980    -9.0640 hn         1 W79       0.253800
     47 H23         12.0460    -1.1230   -10.5550 h1         1 W79      -0.001967
     48 H24         10.6280    -1.8620   -11.3120 h1         1 W79      -0.001967
     49 H25         11.9390    -2.8830   -10.7040 h1         1 W79      -0.001967
@<TRIPOS>BOND
     1     1     2 1   
     2     1    26 1   
     3     1    27 1   
     4     2     3 ar  
     5     2     7 ar  
     6     3     4 ar  
     7     3    28 1   
     8     4     5 1   
     9     4     6 ar  
    10     5    29 1   
    11     5    30 1   
    12     5    31 1   
    13     6     8 ar  
    14     6    32 1   
    15     7     8 ar  
    16     8     9 1   
    17     9    10 1   
    18     9    33 1   
    19     9    34 1   
    20    10    11 1   
    21    10    35 1   
    22    10    36 1   
    23    11    12 ar  
    24    11    13 ar  
    25    12    16 ar  
    26    12    37 1   
    27    13    14 ar  
    28    13    38 1   
    29    14    15 ar  
    30    15    16 ar  
    31    15    39 1   
    32    16    17 1   
    33    17    18 ar  
    34    17    19 ar  
    35    18    22 ar  
    36    18    40 1   
    37    19    20 ar  
    38    19    41 1   
    39    20    21 ar  
    40    20    42 1   
    41    21    22 ar  
    42    21    43 1   
    43    22    23 1   
    44    23    24 1   
    45    23    44 1   
    46    23    45 1   
    47    24    25 1   
    48    24    46 1   
    49    25    47 1   
    50    25    48 1   
    51    25    49 1   
@<TRIPOS>SUBSTRUCTURE
     1 W79         1 TEMP              0 ****  ****    0 ROOT
