@<TRIPOS>MOLECULE
molecule
   40    42     1     0     0
SMALL
bcc


@<TRIPOS>ATOM
      1 OAJ          0.0000     0.0000     0.0000 o          1 W7A      -0.806300
      2 CAI          1.3470     0.0000     0.0000 c          1 W7A       0.880800
      3 OAK          1.9540     0.0000     1.0500 o          1 W7A      -0.806300
      4 C4           2.0870     0.0020    -1.2840 cc         1 W7A       0.042400
      5 N3           1.4100    -0.1220    -2.4780 ns         1 W7A      -0.427100
      6 C2           2.0630    -0.1240    -3.6510 c          1 W7A       0.798500
      7 O2           1.4270    -0.2360    -4.6820 o          1 W7A      -0.705500
      8 N1           3.4010    -0.0040    -3.7180 ns         1 W7A      -0.566500
      9 C6           4.1310     0.1220    -2.5910 c          1 W7A       0.700700
     10 O6           5.3420     0.2310    -2.6470 o          1 W7A      -0.660500
     11 C5           3.4400     0.1300    -1.2960 cd         1 W7A      -0.282400
     12 CAL          4.2120     0.2690    -0.0090 c3         1 W7A      -0.004200
     13 CAM          4.6410    -1.1160     0.4800 c3         1 W7A      -0.028100
     14 CAN          5.4130    -0.9780     1.7670 ca         1 W7A      -0.048300
     15 CAS          6.7870    -0.8130     1.7320 ca         1 W7A      -0.123500
     16 CAR          7.4990    -0.6860     2.9060 ca         1 W7A      -0.123000
     17 CAO          4.7460    -1.0100     2.9780 ca         1 W7A      -0.123500
     18 CAP          5.4490    -0.8830     4.1590 ca         1 W7A      -0.123000
     19 CAQ          6.8330    -0.7230     4.1290 cp         1 W7A      -0.070000
     20 CAT          7.5930    -0.5870     5.3960 cp         1 W7A      -0.009000
     21 CAU          8.9760    -0.4160     5.3670 ca         1 W7A      -0.127500
     22 CAY          9.6790    -0.2900     6.5480 ca         1 W7A      -0.130000
     23 CAX          9.0120    -0.3340     7.7600 ca         1 W7A      -0.145000
     24 CAW          7.6410    -0.5030     7.7950 ca         1 W7A      -0.130000
     25 CAV          6.9280    -0.6240     6.6200 ca         1 W7A      -0.127500
     26 H2           3.8570    -0.0090    -4.6090 hn         1 W7A       0.341500
     27 H4           3.5860     0.7380     0.7390 hc         1 W7A       0.075700
     28 H5           5.0910     0.8790    -0.1800 hc         1 W7A       0.075700
     29 H6           3.7620    -1.7260     0.6500 hc         1 W7A       0.051700
     30 H7           5.2670    -1.5860    -0.2690 hc         1 W7A       0.051700
     31 H8           7.3030    -0.7840     0.7800 ha         1 W7A       0.148500
     32 H9           8.5740    -0.5590     2.8770 ha         1 W7A       0.121500
     33 H10          3.6700    -1.1350     2.9990 ha         1 W7A       0.148500
     34 H11          4.9260    -0.9110     5.1080 ha         1 W7A       0.121500
     35 H12          9.4980    -0.3820     4.4180 ha         1 W7A       0.135000
     36 H13         10.7540    -0.1570     6.5270 ha         1 W7A       0.121000
     37 H14          9.5680    -0.2360     8.6850 ha         1 W7A       0.118000
     38 H15          7.1240    -0.5340     8.7470 ha         1 W7A       0.121000
     39 H16          5.8530    -0.7570     6.6480 ha         1 W7A       0.135000
     40 H17          0.4130    -0.2130    -2.4700 hn         1 W7A       0.377500
@<TRIPOS>BOND
     1    22    21 ar
     2    22    23 ar
     3    21    20 ar
     4    16    15 ar
     5    16    19 ar
     6    15    14 ar
     7    23    24 ar
     8    20    19 1
     9    20    25 ar
    10    19    18 ar
    11    14    13 1
    12    14    17 ar
    13    24    25 ar
    14    13    12 1
    15    18    17 ar
    16    12    11 1
    17    10     9 2
    18    11     9 1
    19    11     4 2
    20     9     8 1
    21     4     2 1
    22     4     5 1
    23     3     2 1
    24     2     1 1
    25     8     6 1
    26     5     6 1
    27     6     7 2
    28     8    26 1
    29    12    27 1
    30    12    28 1
    31    13    29 1
    32    13    30 1
    33    15    31 1
    34    16    32 1
    35    17    33 1
    36    18    34 1
    37    21    35 1
    38    22    36 1
    39    23    37 1
    40    24    38 1
    41    25    39 1
    42     5    40 1
@<TRIPOS>SUBSTRUCTURE
     1 W7A         1 TEMP              0 ****  ****    0 ROOT
