@<TRIPOS>MOLECULE
W7B
   36    38     1     0     0
SMALL
bcc


@<TRIPOS>ATOM
      1 OAJ          0.0000     0.0000     0.0000 o          1 W7B      -0.851800
      2 CAI          1.3470     0.0000     0.0000 c          1 W7B       0.980800
      3 OAK          1.9540     0.0000     1.0520 o          1 W7B      -0.851800
      4 C4           2.0880     0.0000    -1.2830 cc         1 W7B      -0.137600
      5 N3           1.4090    -0.1110    -2.4780 ns         1 W7B       0.052900
      6 C2           2.0630    -0.1130    -3.6520 c          1 W7B       0.561500
      7 O2           1.4270    -0.2130    -4.6830 o          1 W7B      -0.757500
      8 N1           3.4020    -0.0060    -3.7160 ns         1 W7B      -0.139500
      9 C6           4.1340     0.1080    -2.5880 c          1 W7B       0.616700
     10 O6           5.3460     0.2050    -2.6430 o          1 W7B      -0.696500
     11 C5           3.4410     0.1160    -1.2930 cd         1 W7B      -0.263400
     12 CAL          4.2150     0.2410    -0.0060 c3         1 W7B       0.001800
     13 CAM          4.7360    -1.1370     0.4110 c3         1 W7B       0.027900
     14 CAN          5.5100    -1.0120     1.6980 ca         1 W7B      -0.032300
     15 CAS          4.8370    -1.0430     2.9320 ca         1 W7B      -0.034000
     16 CAU          3.4420    -1.1900     3.0000 ca         1 W7B      -0.073000
     17 CAT          2.8240    -1.2160     4.2120 ca         1 W7B      -0.117000
     18 CAW          3.5570    -1.1010     5.3930 ca         1 W7B      -0.099000
     19 CAV          4.9090    -0.9570     5.3660 ca         1 W7B      -0.129000
     20 CAR          5.5810    -0.9260     4.1330 ca         1 W7B      -0.033000
     21 CAQ          6.9780    -0.7800     4.0660 ca         1 W7B      -0.121000
     22 CAP          7.5950    -0.7550     2.8530 ca         1 W7B      -0.102000
     23 CAO          6.8630    -0.8750     1.6730 ca         1 W7B      -0.133000
     24 H2           3.8590    -0.0100    -4.6060 hn         1 W7B       0.188500
     25 H4           3.5660     0.6310     0.7690 hc         1 W7B       0.063700
     26 H5           5.0500     0.9150    -0.1500 hc         1 W7B       0.063700
     27 H6           5.3850    -1.5270    -0.3640 hc         1 W7B       0.021700
     28 H7           3.9000    -1.8110     0.5560 hc         1 W7B       0.021700
     29 H8           2.8590    -1.2810     2.0910 ha         1 W7B       0.187000
     30 H9           1.7480    -1.3300     4.2610 ha         1 W7B       0.108000
     31 H10          3.0410    -1.1250     6.3450 ha         1 W7B       0.085000
     32 H11          5.4660    -0.8680     6.2920 ha         1 W7B       0.092000
     33 H12          7.5600    -0.6860     4.9740 ha         1 W7B       0.092000
     34 H13          8.6710    -0.6470     2.8050 ha         1 W7B       0.086000
     35 H14          7.3790    -0.8510     0.7210 ha         1 W7B       0.107000
     36 H15          0.4120    -0.1910    -2.4700 hn         1 W7B       0.212500
@<TRIPOS>BOND
     1     1     2 1   
     2     2     3 1   
     3     2     4 1   
     4     4     5 1   
     5     4    11 2   
     6     5     6 1   
     7     5    36 1   
     8     6     7 2   
     9     6     8 1   
    10     8     9 1   
    11     8    24 1   
    12     9    10 2   
    13     9    11 1   
    14    11    12 1   
    15    12    13 1   
    16    12    25 1   
    17    12    26 1   
    18    13    14 1   
    19    13    27 1   
    20    13    28 1   
    21    14    15 ar  
    22    14    23 ar  
    23    15    16 ar  
    24    15    20 ar  
    25    16    17 ar  
    26    16    29 1   
    27    17    18 ar  
    28    17    30 1   
    29    18    19 ar  
    30    18    31 1   
    31    19    20 ar  
    32    19    32 1   
    33    20    21 ar  
    34    21    22 ar  
    35    21    33 1   
    36    22    23 ar  
    37    22    34 1   
    38    23    35 1   
@<TRIPOS>SUBSTRUCTURE
     1 W7B         1 TEMP              0 ****  ****    0 ROOT
