@<TRIPOS>MOLECULE
molecule
   40    42     1     0     0
SMALL
bcc


@<TRIPOS>ATOM
      1 OAB          0.0000     0.0000     0.0000 o          1 W7C      -0.806300
      2 CAQ          1.2130     0.0000     0.0000 c          1 W7C       0.880800
      3 OAE          1.8870     0.0000     1.1670 o          1 W7C      -0.806300
      4 CAT          1.9550    -0.0090    -1.2830 cc         1 W7C       0.043400
      5 NAN          3.3280     0.1160    -1.2940 ns         1 W7C      -0.428100
      6 CAV          4.0180     0.1110    -2.4470 c          1 W7C       0.799500
      7 OAC          5.2280     0.2230    -2.4130 o          1 W7C      -0.704500
      8 NAO          3.4060    -0.0150    -3.6370 ns         1 W7C      -0.567500
      9 CAW          2.0640    -0.1410    -3.7060 c          1 W7C       0.701700
     10 OAD          1.5080    -0.2540    -4.7820 o          1 W7C      -0.659500
     11 CAU          1.2890    -0.1440    -2.4600 cd         1 W7C      -0.282400
     12 CAM         -0.2120    -0.2820    -2.4840 c3         1 W7C      -0.004200
     13 CAL         -0.8500     1.1020    -2.6170 c3         1 W7C      -0.030100
     14 CAR         -2.3500     0.9640    -2.6430 ca         1 W7C      -0.037300
     15 CAK         -2.9890     0.7970    -3.8330 ca         1 W7C      -0.143000
     16 CAH         -3.0630     1.0030    -1.4460 ca         1 W7C      -0.110000
     17 CAJ         -4.4190     0.8810    -1.4340 ca         1 W7C      -0.115000
     18 CAY         -5.1120     0.7110    -2.6430 ca         1 W7C      -0.059000
     19 CAX         -4.3870     0.6660    -3.8590 ca         1 W7C      -0.006000
     20 CAI         -5.0820     0.4930    -5.0700 ca         1 W7C      -0.151000
     21 CAF         -6.4370     0.3710    -5.0600 ca         1 W7C      -0.105000
     22 CAG         -7.1540     0.4150    -3.8670 ca         1 W7C      -0.252000
     23 CAS         -6.5160     0.5810    -2.6710 ca         1 W7C       0.154100
     24 OAP         -7.2280     0.6220    -1.5150 os         1 W7C      -0.326900
     25 CAA         -8.6480     0.4840    -1.6240 c3         1 W7C       0.131700
     26 H2           3.8200     0.2110    -0.4280 hn         1 W7C       0.377500
     27 H3           3.9490    -0.0140    -4.4780 hn         1 W7C       0.341500
     28 H4          -0.5040    -0.8960    -3.3270 hc         1 W7C       0.076700
     29 H5          -0.5470    -0.7470    -1.5650 hc         1 W7C       0.076700
     30 H6          -0.5140     1.5680    -3.5360 hc         1 W7C       0.052200
     31 H7          -0.5580     1.7170    -1.7740 hc         1 W7C       0.052200
     32 H8          -2.4340     0.8730    -4.7610 ha         1 W7C       0.137000
     33 H9          -2.5310     1.1360    -0.5110 ha         1 W7C       0.164000
     34 H10         -4.9600     0.9130    -0.4960 ha         1 W7C       0.139000
     35 H11         -4.5390     0.4560    -6.0080 ha         1 W7C       0.128000
     36 H12         -6.9670     0.2390    -5.9960 ha         1 W7C       0.115000
     37 H13         -8.2320     0.3160    -3.8880 ha         1 W7C       0.120000
     38 H14         -9.0420     1.2840    -2.2380 h1         1 W7C       0.036033
     39 H15         -8.8840    -0.4710    -2.0790 h1         1 W7C       0.036033
     40 H16         -9.0920     0.5330    -0.6370 h1         1 W7C       0.036033
@<TRIPOS>BOND
     1    21    20 ar
     2    21    22 ar
     3    20    19 ar
     4    22    23 ar
     5    19    15 ar
     6    19    18 ar
     7    15    14 ar
     8    23    18 ar
     9    23    24 1
    10    18    17 ar
    11    14    13 1
    12    14    16 ar
    13    13    12 1
    14    25    24 1
    15    17    16 ar
    16    12    11 1
    17    10     9 2
    18    11     9 1
    19    11     4 2
    20     9     8 1
    21     4     2 1
    22     4     5 1
    23     2     1 1
    24     2     3 1
    25     8     6 1
    26     5     6 1
    27     6     7 2
    28     5    26 1
    29     8    27 1
    30    12    28 1
    31    12    29 1
    32    13    30 1
    33    13    31 1
    34    15    32 1
    35    16    33 1
    36    17    34 1
    37    20    35 1
    38    21    36 1
    39    22    37 1
    40    25    38 1
    41    25    39 1
    42    25    40 1
@<TRIPOS>SUBSTRUCTURE
     1 W7C         1 TEMP              0 ****  ****    0 ROOT
