@<TRIPOS>MOLECULE
W7C
   40    42     1     0     0
SMALL
bcc


@<TRIPOS>ATOM
      1 OAB          0.0000     0.0000     0.0000 o          1 W7C      -0.854800
      2 CAQ          1.2130     0.0000     0.0000 c          1 W7C       0.975800
      3 OAE          1.8870     0.0000     1.1670 o          1 W7C      -0.854800
      4 CAT          1.9550    -0.0090    -1.2830 cc         1 W7C      -0.130600
      5 NAN          3.3280     0.1160    -1.2940 ns         1 W7C       0.053900
      6 CAV          4.0180     0.1110    -2.4470 c          1 W7C       0.560500
      7 OAC          5.2280     0.2230    -2.4130 o          1 W7C      -0.759500
      8 NAO          3.4060    -0.0150    -3.6370 ns         1 W7C      -0.139500
      9 CAW          2.0640    -0.1410    -3.7060 c          1 W7C       0.618700
     10 OAD          1.5080    -0.2540    -4.7820 o          1 W7C      -0.699500
     11 CAU          1.2890    -0.1440    -2.4600 cd         1 W7C      -0.272400
     12 CAM         -0.2120    -0.2820    -2.4840 c3         1 W7C       0.023800
     13 CAL         -0.8500     1.1020    -2.6170 c3         1 W7C       0.027900
     14 CAR         -2.3500     0.9640    -2.6430 ca         1 W7C      -0.038300
     15 CAK         -2.9890     0.7970    -3.8330 ca         1 W7C      -0.122000
     16 CAH         -3.0630     1.0030    -1.4460 ca         1 W7C      -0.082000
     17 CAJ         -4.4190     0.8810    -1.4340 ca         1 W7C      -0.094000
     18 CAY         -5.1120     0.7110    -2.6430 ca         1 W7C      -0.065000
     19 CAX         -4.3870     0.6660    -3.8590 ca         1 W7C      -0.003000
     20 CAI         -5.0820     0.4930    -5.0700 ca         1 W7C      -0.129000
     21 CAF         -6.4370     0.3710    -5.0600 ca         1 W7C      -0.076000
     22 CAG         -7.1540     0.4150    -3.8670 ca         1 W7C      -0.250000
     23 CAS         -6.5160     0.5810    -2.6710 ca         1 W7C       0.167100
     24 OAP         -7.2280     0.6220    -1.5150 os         1 W7C      -0.303900
     25 CAA         -8.6480     0.4840    -1.6240 c3         1 W7C       0.243700
     26 H2           3.8200     0.2110    -0.4280 hn         1 W7C       0.212500
     27 H3           3.9490    -0.0140    -4.4780 hn         1 W7C       0.187500
     28 H4          -0.5040    -0.8960    -3.3270 hc         1 W7C       0.055200
     29 H5          -0.5470    -0.7470    -1.5650 hc         1 W7C       0.055200
     30 H6          -0.5140     1.5680    -3.5360 hc         1 W7C       0.022700
     31 H7          -0.5580     1.7170    -1.7740 hc         1 W7C       0.022700
     32 H8          -2.4340     0.8730    -4.7610 ha         1 W7C       0.115000
     33 H9          -2.5310     1.1360    -0.5110 ha         1 W7C       0.138000
     34 H10         -4.9600     0.9130    -0.4960 ha         1 W7C       0.111000
     35 H11         -4.5390     0.4560    -6.0080 ha         1 W7C       0.104000
     36 H12         -6.9670     0.2390    -5.9960 ha         1 W7C       0.088000
     37 H13         -8.2320     0.3160    -3.8880 ha         1 W7C       0.110000
     38 H14         -9.0420     1.2840    -2.2380 h1         1 W7C      -0.006967
     39 H15         -8.8840    -0.4710    -2.0790 h1         1 W7C      -0.006967
     40 H16         -9.0920     0.5330    -0.6370 h1         1 W7C      -0.006967
@<TRIPOS>BOND
     1     1     2 1   
     2     2     3 1   
     3     2     4 1   
     4     4     5 1   
     5     4    11 2   
     6     5     6 1   
     7     5    26 1   
     8     6     7 2   
     9     6     8 1   
    10     8     9 1   
    11     8    27 1   
    12     9    10 2   
    13     9    11 1   
    14    11    12 1   
    15    12    13 1   
    16    12    28 1   
    17    12    29 1   
    18    13    14 1   
    19    13    30 1   
    20    13    31 1   
    21    14    15 ar  
    22    14    16 ar  
    23    15    19 ar  
    24    15    32 1   
    25    16    17 ar  
    26    16    33 1   
    27    17    18 ar  
    28    17    34 1   
    29    18    19 ar  
    30    18    23 ar  
    31    19    20 ar  
    32    20    21 ar  
    33    20    35 1   
    34    21    22 ar  
    35    21    36 1   
    36    22    23 ar  
    37    22    37 1   
    38    23    24 1   
    39    24    25 1   
    40    25    38 1   
    41    25    39 1   
    42    25    40 1   
@<TRIPOS>SUBSTRUCTURE
     1 W7C         1 TEMP              0 ****  ****    0 ROOT
