@<TRIPOS>MOLECULE
W7D
   40    42     1     0     0
SMALL
bcc


@<TRIPOS>ATOM
      1 O            0.0000     0.0000     0.0000 o          1 W7D      -0.855300
      2 C            1.2140     0.0000     0.0000 c          1 W7D       0.976800
      3 OXT          1.8880     0.0000     1.1650 o          1 W7D      -0.855300
      4 CA           1.9550    -0.0060    -1.2850 cc         1 W7D      -0.133600
      5 N            3.3270     0.1190    -1.2960 ns         1 W7D       0.054900
      6 CAR          4.0160     0.1150    -2.4500 c          1 W7D       0.560500
      7 OAC          5.2260     0.2280    -2.4160 o          1 W7D      -0.760500
      8 ND2          3.4030    -0.0090    -3.6390 ns         1 W7D      -0.138500
      9 CG           2.0610    -0.1350    -3.7070 c          1 W7D       0.616700
     10 OD1          1.5030    -0.2480    -4.7830 o          1 W7D      -0.698500
     11 CB           1.2860    -0.1400    -2.4610 cd         1 W7D      -0.270400
     12 CAM         -0.2140    -0.2790    -2.4840 c3         1 W7D       0.021800
     13 CAL         -0.8520     1.1050    -2.6160 c3         1 W7D       0.031900
     14 CAT         -2.3530     0.9660    -2.6390 ca         1 W7D      -0.064300
     15 CAK         -2.9920     0.7980    -3.8300 ca         1 W7D      -0.089000
     16 CAW         -4.3890     0.6680    -3.8560 ca         1 W7D      -0.057000
     17 CAH         -3.0650     1.0040    -1.4430 ca         1 W7D      -0.056000
     18 CAJ         -4.4210     0.8800    -1.4290 ca         1 W7D      -0.126000
     19 CAV         -5.1150     0.7120    -2.6390 ca         1 W7D      -0.011000
     20 CAI         -6.5140     0.5820    -2.6660 ca         1 W7D      -0.131000
     21 CAF         -7.1550     0.4150    -3.8540 ca         1 W7D      -0.076000
     22 CAG         -6.4470     0.3710    -5.0520 ca         1 W7D      -0.250000
     23 CAU         -5.0860     0.4940    -5.0690 ca         1 W7D       0.169100
     24 OAP         -4.4100     0.4510    -6.2460 os         1 W7D      -0.298900
     25 CAA         -5.1850     0.2720    -7.4340 c3         1 W7D       0.243700
     26 H2           3.8190     0.2130    -0.4300 hn         1 W7D       0.212500
     27 H3           3.9450    -0.0080    -4.4800 hn         1 W7D       0.187500
     28 H4          -0.5070    -0.8940    -3.3270 hc         1 W7D       0.055200
     29 H5          -0.5480    -0.7450    -1.5640 hc         1 W7D       0.055200
     30 H6          -0.5600     1.7190    -1.7730 hc         1 W7D       0.022700
     31 H7          -0.5190     1.5700    -3.5350 hc         1 W7D       0.022700
     32 H8          -2.4380     0.8760    -4.7570 ha         1 W7D       0.123000
     33 H9          -2.5320     1.1360    -0.5090 ha         1 W7D       0.136000
     34 H10         -4.9610     0.9120    -0.4910 ha         1 W7D       0.103000
     35 H11         -7.0800     0.6140    -1.7430 ha         1 W7D       0.101000
     36 H12         -8.2340     0.3150    -3.8690 ha         1 W7D       0.088000
     37 H13         -6.9820     0.2380    -5.9850 ha         1 W7D       0.111000
     38 H14         -4.5280     0.2540    -8.2950 h1         1 W7D      -0.006967
     39 H15         -5.8880     1.0900    -7.5330 h1         1 W7D      -0.006967
     40 H16         -5.7270    -0.6650    -7.3740 h1         1 W7D      -0.006967
@<TRIPOS>BOND
     1     1     2 1   
     2     2     3 1   
     3     2     4 1   
     4     4     5 1   
     5     4    11 2   
     6     5     6 1   
     7     5    26 1   
     8     6     7 2   
     9     6     8 1   
    10     8     9 1   
    11     8    27 1   
    12     9    10 2   
    13     9    11 1   
    14    11    12 1   
    15    12    13 1   
    16    12    28 1   
    17    12    29 1   
    18    13    14 1   
    19    13    30 1   
    20    13    31 1   
    21    14    15 ar  
    22    14    17 ar  
    23    15    16 ar  
    24    15    32 1   
    25    16    19 ar  
    26    16    23 ar  
    27    17    18 ar  
    28    17    33 1   
    29    18    19 ar  
    30    18    34 1   
    31    19    20 ar  
    32    20    21 ar  
    33    20    35 1   
    34    21    22 ar  
    35    21    36 1   
    36    22    23 ar  
    37    22    37 1   
    38    23    24 1   
    39    24    25 1   
    40    25    38 1   
    41    25    39 1   
    42    25    40 1   
@<TRIPOS>SUBSTRUCTURE
     1 W7D         1 TEMP              0 ****  ****    0 ROOT
