@<TRIPOS>MOLECULE
molecule
   40    42     1     0     0
SMALL
bcc


@<TRIPOS>ATOM
      1 O            0.0000     0.0000     0.0000 o          1 W7D      -0.807300
      2 C            1.2140     0.0000     0.0000 c          1 W7D       0.881800
      3 OXT          1.8880     0.0000     1.1650 o          1 W7D      -0.807300
      4 CA           1.9550    -0.0060    -1.2850 cc         1 W7D       0.040400
      5 N            3.3270     0.1190    -1.2960 ns         1 W7D      -0.428100
      6 CAR          4.0160     0.1150    -2.4500 c          1 W7D       0.798500
      7 OAC          5.2260     0.2280    -2.4160 o          1 W7D      -0.705500
      8 ND2          3.4030    -0.0090    -3.6390 ns         1 W7D      -0.567500
      9 CG           2.0610    -0.1350    -3.7070 c          1 W7D       0.699700
     10 OD1          1.5030    -0.2480    -4.7830 o          1 W7D      -0.658500
     11 CB           1.2860    -0.1400    -2.4610 cd         1 W7D      -0.280400
     12 CAM         -0.2140    -0.2790    -2.4840 c3         1 W7D      -0.005200
     13 CAL         -0.8520     1.1050    -2.6160 c3         1 W7D      -0.026100
     14 CAT         -2.3530     0.9660    -2.6390 ca         1 W7D      -0.065300
     15 CAK         -2.9920     0.7980    -3.8300 ca         1 W7D      -0.108000
     16 CAW         -4.3890     0.6680    -3.8560 ca         1 W7D      -0.052000
     17 CAH         -3.0650     1.0040    -1.4430 ca         1 W7D      -0.083000
     18 CAJ         -4.4210     0.8800    -1.4290 ca         1 W7D      -0.149000
     19 CAV         -5.1150     0.7120    -2.6390 ca         1 W7D      -0.013000
     20 CAI         -6.5140     0.5820    -2.6660 ca         1 W7D      -0.154000
     21 CAF         -7.1550     0.4150    -3.8540 ca         1 W7D      -0.105000
     22 CAG         -6.4470     0.3710    -5.0520 ca         1 W7D      -0.253000
     23 CAU         -5.0860     0.4940    -5.0690 ca         1 W7D       0.156100
     24 OAP         -4.4100     0.4510    -6.2460 os         1 W7D      -0.321900
     25 CAA         -5.1850     0.2720    -7.4340 c3         1 W7D       0.131700
     26 H2           3.8190     0.2130    -0.4300 hn         1 W7D       0.377500
     27 H3           3.9450    -0.0080    -4.4800 hn         1 W7D       0.341500
     28 H4          -0.5070    -0.8940    -3.3270 hc         1 W7D       0.076700
     29 H5          -0.5480    -0.7450    -1.5640 hc         1 W7D       0.076700
     30 H6          -0.5600     1.7190    -1.7730 hc         1 W7D       0.051700
     31 H7          -0.5190     1.5700    -3.5350 hc         1 W7D       0.051700
     32 H8          -2.4380     0.8760    -4.7570 ha         1 W7D       0.148000
     33 H9          -2.5320     1.1360    -0.5090 ha         1 W7D       0.163000
     34 H10         -4.9610     0.9120    -0.4910 ha         1 W7D       0.127000
     35 H11         -7.0800     0.6140    -1.7430 ha         1 W7D       0.124000
     36 H12         -8.2340     0.3150    -3.8690 ha         1 W7D       0.114000
     37 H13         -6.9820     0.2380    -5.9850 ha         1 W7D       0.121000
     38 H14         -4.5280     0.2540    -8.2950 h1         1 W7D       0.036033
     39 H15         -5.8880     1.0900    -7.5330 h1         1 W7D       0.036033
     40 H16         -5.7270    -0.6650    -7.3740 h1         1 W7D       0.036033
@<TRIPOS>BOND
     1    25    24 1
     2    24    23 1
     3    23    22 ar
     4    23    16 ar
     5    22    21 ar
     6    15    16 ar
     7    15    14 ar
     8    16    19 ar
     9    21    20 ar
    10    13    14 1
    11    13    12 1
    12    14    17 ar
    13    19    20 ar
    14    19    18 ar
    15    17    18 ar
    16    12    11 1
    17    10     9 2
    18    11     9 1
    19    11     4 2
    20     9     8 1
    21     1     2 1
    22     2     4 1
    23     2     3 1
    24     4     5 1
    25     8     6 1
    26     5     6 1
    27     6     7 2
    28     5    26 1
    29     8    27 1
    30    12    28 1
    31    12    29 1
    32    13    30 1
    33    13    31 1
    34    15    32 1
    35    17    33 1
    36    18    34 1
    37    20    35 1
    38    21    36 1
    39    22    37 1
    40    25    38 1
    41    25    39 1
    42    25    40 1
@<TRIPOS>SUBSTRUCTURE
     1 W7D         1 TEMP              0 ****  ****    0 ROOT
