@<TRIPOS>MOLECULE
molecule
   60    62     1     0     0
SMALL
bcc


@<TRIPOS>ATOM
      1 C28          0.0000     0.0000     0.0000 ca         1 W7E      -0.213000
      2 C24          0.0050    -0.0060     2.4020 ca         1 W7E      -0.213000
      3 C27          1.3810     0.0000     0.0000 ca         1 W7E      -0.051000
      4 C25          1.3870    -0.0010     2.3960 ca         1 W7E      -0.051000
      5 C5         -12.6640    -6.6810    -3.0030 ca         1 W7E      -0.062000
      6 C6         -11.3690    -6.4920    -2.6280 ca         1 W7E      -0.153000
      7 C8         -12.0750    -5.2580    -0.6910 ca         1 W7E      -0.090000
      8 C26          2.0740     0.0000     1.1960 ca         1 W7E      -0.047300
      9 C4         -13.7170    -6.1580    -2.2260 ca         1 W7E       0.102400
     10 C23         -0.6920    -0.0000     1.2030 ca         1 W7E       0.080100
     11 C7         -11.0590    -5.7800    -1.4710 ca         1 W7E       0.063600
     12 C9         -13.4030    -5.4450    -1.0640 ca         1 W7E      -0.038100
     13 C2         -15.8110    -5.6720    -1.5630 cc         1 W7E       0.385200
     14 C12         -9.3410    -4.4470    -0.5040 c          1 W7E       0.662100
     15 C31          5.5940     1.4430     1.3130 c          1 W7E       0.912600
     16 C34          3.6890     2.1160    -0.0940 c          1 W7E       0.912600
     17 C17         -5.9310    -1.4530     1.3620 c          1 W7E       0.782100
     18 C1         -17.3160    -5.6680    -1.6410 c3         1 W7E      -0.095400
     19 C21         -2.6980     0.0050     2.4790 c3         1 W7E       0.126400
     20 C29          3.5810    -0.0010     1.1930 c3         1 W7E      -0.002100
     21 C14         -7.8860    -4.2050    -0.1980 c3         1 W7E      -0.178400
     22 C20         -4.2150     0.0120     2.2820 c3         1 W7E       0.129000
     23 C15         -7.7270    -2.8370     0.4700 c3         1 W7E       0.149000
     24 C30          4.0910     1.4420     1.1920 c3         1 W7E      -0.260700
     25 N3         -15.0480    -6.2340    -2.4220 nd         1 W7E      -0.583100
     26 N11         -9.7230    -5.5960    -1.0980 ns         1 W7E      -0.482100
     27 N19         -4.6300    -1.2360     1.6370 ns         1 W7E      -0.588900
     28 N16         -6.3120    -2.6010     0.7690 ns         1 W7E      -0.619900
     29 O13        -10.1700    -3.6090    -0.2170 o          1 W7E      -0.583100
     30 O32          6.1940     0.3990     1.3920 o          1 W7E      -0.871800
     31 O35          4.5370     2.5530    -0.8370 o          1 W7E      -0.871800
     32 O18         -6.7610    -0.6130     1.6500 o          1 W7E      -0.669100
     33 O33          6.2640     2.6060     1.3340 o          1 W7E      -0.871800
     34 O36          2.3910     2.2310    -0.4160 o          1 W7E      -0.871800
     35 O22         -2.0510     0.0050     1.2050 os         1 W7E      -0.351900
     36 S10        -14.9120    -4.9260    -0.3190 ss         1 W7E      -0.096100
     37 H25          1.9320    -0.0030     3.3320 ha         1 W7E       0.139000
     38 H24         -0.5340    -0.0070     3.3420 ha         1 W7E       0.102000
     39 H27          1.9220     0.0000    -0.9390 ha         1 W7E       0.139000
     40 H28         -0.5420     0.0020    -0.9380 ha         1 W7E       0.102000
     41 H8         -11.8380    -4.7040     0.2090 ha         1 W7E       0.176000
     42 H291         3.9440    -0.5120     2.0760 hc         1 W7E       0.034200
     43 H292         3.9400    -0.5110     0.3070 hc         1 W7E       0.034200
     44 H11         -9.0570    -6.3290    -1.2420 hn         1 W7E       0.326500
     45 H11C       -17.7210    -5.1520    -0.7790 hc         1 W7E       0.055700
     46 H12C       -17.6790    -6.6880    -1.6550 hc         1 W7E       0.055700
     47 H13C       -17.6290    -5.1600    -2.5450 hc         1 W7E       0.055700
     48 H141        -7.3150    -4.2260    -1.1180 hc         1 W7E       0.066700
     49 H142        -7.5240    -4.9770     0.4700 hc         1 W7E       0.066700
     50 H30          3.6620     1.9770     2.0300 hc         1 W7E       0.035700
     51 H16         -5.6290    -3.2960     0.5390 hn         1 W7E       0.303500
     52 H19         -3.9490    -1.9380     1.4210 hn         1 W7E       0.318500
     53 H151        -8.0880    -2.0650    -0.1980 h1         1 W7E       0.066700
     54 H152        -8.2980    -2.8160     1.3900 h1         1 W7E       0.066700
     55 H201        -4.7040     0.1000     3.2450 h1         1 W7E       0.055700
     56 H202        -4.4940     0.8510     1.6570 h1         1 W7E       0.055700
     57 H211        -2.4090    -0.8820     3.0300 h1         1 W7E       0.037700
     58 H212        -2.4020     0.8860     3.0350 h1         1 W7E       0.037700
     59 H5         -12.8870    -7.2370    -3.9050 ha         1 W7E       0.144000
     60 H6         -10.5710    -6.9000    -3.2360 ha         1 W7E       0.136000
@<TRIPOS>BOND
     1     4     2 ar
     2     4     8 ar
     3     3     1 ar
     4     3     8 ar
     5     5     6 ar
     6     5     9 ar
     7     6    11 ar
     8     2    10 ar
     9     1    10 ar
    10     7    11 ar
    11     7    12 ar
    12     8    20 1
    13     9    12 ar
    14     9    25 1
    15    11    26 1
    16    10    35 1
    17    12    36 1
    18    13    18 1
    19    13    25 2
    20    13    36 1
    21    14    21 1
    22    14    26 1
    23    14    29 2
    24    15    24 1
    25    15    30 1
    26    15    33 1
    27    16    24 1
    28    16    31 1
    29    16    34 1
    30    17    28 1
    31    17    27 1
    32    17    32 2
    33    20    24 1
    34    21    23 1
    35    23    28 1
    36    22    19 1
    37    22    27 1
    38    19    35 1
    39     4    37 1
    40     2    38 1
    41     3    39 1
    42     1    40 1
    43     5    59 1
    44     6    60 1
    45     7    41 1
    46    20    42 1
    47    20    43 1
    48    26    44 1
    49    18    45 1
    50    18    46 1
    51    18    47 1
    52    21    48 1
    53    21    49 1
    54    24    50 1
    55    28    51 1
    56    27    52 1
    57    23    53 1
    58    23    54 1
    59    22    55 1
    60    22    56 1
    61    19    57 1
    62    19    58 1
@<TRIPOS>SUBSTRUCTURE
     1 W7E         1 TEMP              0 ****  ****    0 ROOT
