@<TRIPOS>MOLECULE
molecule
   40    42     1     0     0
SMALL
bcc


@<TRIPOS>ATOM
      1 OAB          0.0000     0.0000     0.0000 o          1 W7F      -0.799300
      2 CAQ          1.2140     0.0000     0.0000 c          1 W7F       0.875800
      3 OAE          1.8880     0.0000     1.1650 o          1 W7F      -0.799300
      4 CAT          1.9550    -0.0050    -1.2840 cc         1 W7F       0.041400
      5 NAN          3.3280     0.1060    -1.2950 ns         1 W7F      -0.428100
      6 CAV          4.0180     0.1040    -2.4490 c          1 W7F       0.798500
      7 OAC          5.2280     0.2040    -2.4140 o          1 W7F      -0.705500
      8 NAO          3.4040    -0.0080    -3.6400 ns         1 W7F      -0.567500
      9 CAW          2.0610    -0.1220    -3.7080 c          1 W7F       0.699700
     10 OAD          1.5020    -0.2230    -4.7850 o          1 W7F      -0.662500
     11 CAU          1.2860    -0.1270    -2.4610 cd         1 W7F      -0.281400
     12 CAM         -0.2160    -0.2520    -2.4860 c3         1 W7F      -0.015200
     13 CAL         -0.8380     1.1240    -2.7340 c3         1 W7F      -0.026100
     14 CAS         -2.3390     0.9980    -2.7590 ca         1 W7F      -0.036300
     15 CAY         -3.0710     1.0340    -1.5590 ca         1 W7F      -0.004000
     16 CAK         -2.4310     1.1880    -0.3190 ca         1 W7F      -0.055000
     17 CAR         -3.1740     1.2180     0.8260 ca         1 W7F       0.121100
     18 OAP         -2.5530     1.3660     2.0250 os         1 W7F      -0.299900
     19 CAA         -3.3840     1.3910     3.1880 c3         1 W7F       0.134700
     20 CAH         -4.5670     1.1000     0.7810 ca         1 W7F      -0.216000
     21 CAJ         -5.2170     0.9520    -0.4040 ca         1 W7F      -0.129000
     22 CAX         -4.4840     0.9150    -1.6030 ca         1 W7F      -0.063000
     23 CAI         -5.1240     0.7630    -2.8440 ca         1 W7F      -0.136000
     24 CAF         -4.3820     0.7320    -3.9850 ca         1 W7F      -0.134000
     25 CAG         -2.9950     0.8560    -3.9430 ca         1 W7F      -0.145000
     26 H2           3.9460    -0.0070    -4.4810 hn         1 W7F       0.340500
     27 H4          -0.5620    -0.6390    -1.5350 hc         1 W7F       0.082200
     28 H5          -0.5090    -0.9290    -3.2790 hc         1 W7F       0.082200
     29 H6          -0.4920     1.5110    -3.6850 hc         1 W7F       0.049700
     30 H7          -0.5450     1.8010    -1.9410 hc         1 W7F       0.049700
     31 H8          -1.6980     1.9450    -0.0710 ha         1 W7F       0.165000
     32 H9          -2.7670     1.5110     4.0710 h1         1 W7F       0.030033
     33 H10         -4.0780     2.2190     3.1180 h1         1 W7F       0.030033
     34 H11         -3.9360     0.4620     3.2570 h1         1 W7F       0.030033
     35 H12         -5.3890     1.0990     1.4860 ha         1 W7F       0.124000
     36 H13         -6.2950     0.8460    -0.3800 ha         1 W7F       0.115000
     37 H14         -6.2010     0.6650    -2.8930 ha         1 W7F       0.114000
     38 H15         -4.8790     0.6200    -4.9410 ha         1 W7F       0.111000
     39 H16         -2.4280     0.8280    -4.8660 ha         1 W7F       0.130000
     40 H17          3.8210     0.1900    -0.4280 hn         1 W7F       0.376500
@<TRIPOS>BOND
     1    23    24 ar
     2    23    22 ar
     3    24    25 ar
     4    21    22 ar
     5    21    20 ar
     6    22    15 ar
     7    25    14 ar
     8    20    17 ar
     9    15    14 ar
    10    15    16 ar
    11    14    13 1
    12    17    16 ar
    13    17    18 1
    14    13    12 1
    15    18    19 1
    16    12    11 1
    17    10     9 2
    18    11     9 1
    19    11     4 2
    20     9     8 1
    21     2     4 1
    22     2     1 1
    23     2     3 1
    24     4     5 1
    25     8     6 1
    26     5     6 1
    27     6     7 2
    28     8    26 1
    29    12    27 1
    30    12    28 1
    31    13    29 1
    32    13    30 1
    33    16    31 1
    34    19    32 1
    35    19    33 1
    36    19    34 1
    37    20    35 1
    38    21    36 1
    39    23    37 1
    40    24    38 1
    41    25    39 1
    42     5    40 1
@<TRIPOS>SUBSTRUCTURE
     1 W7F         1 TEMP              0 ****  ****    0 ROOT
