@<TRIPOS>MOLECULE
molecule
   34    35     1     0     0
SMALL
bcc


@<TRIPOS>ATOM
      1 OAB          0.0000     0.0000     0.0000 o          1 W7G      -0.800300
      2 CAO          1.3470     0.0000     0.0000 c          1 W7G       0.873800
      3 OAE          1.9540     0.0000     1.0510 o          1 W7G      -0.800300
      4 CAR          2.0870    -0.0020    -1.2850 cc         1 W7G       0.041400
      5 NAL          1.4090    -0.1270    -2.4780 ns         1 W7G      -0.427100
      6 CAT          2.0620    -0.1300    -3.6520 c          1 W7G       0.798500
      7 OAC          1.4260    -0.2420    -4.6830 o          1 W7G      -0.708500
      8 NAM          3.4000    -0.0130    -3.7180 ns         1 W7G      -0.568500
      9 CAU          4.1320     0.1140    -2.5910 c          1 W7G       0.700700
     10 OAD          5.3420     0.2200    -2.6480 o          1 W7G      -0.661500
     11 CAS          3.4400     0.1250    -1.2960 cd         1 W7G      -0.280400
     12 CAK          4.2130     0.2630    -0.0100 c3         1 W7G      -0.005200
     13 CAJ          4.6480    -1.1200     0.4750 c3         1 W7G      -0.016100
     14 CAP          5.4200    -0.9810     1.7610 ca         1 W7G      -0.091300
     15 CAH          6.8000    -0.9150     1.7360 ca         1 W7G      -0.098000
     16 CAF          7.5110    -0.7880     2.9150 ca         1 W7G      -0.185000
     17 CAG          6.8410    -0.7280     4.1240 ca         1 W7G      -0.110000
     18 CAI          5.4620    -0.7940     4.1550 ca         1 W7G      -0.237000
     19 CAQ          4.7480    -0.9160     2.9730 ca         1 W7G       0.153100
     20 OAN          3.3900    -0.9750     3.0000 os         1 W7G      -0.261900
     21 CAA          2.7640    -0.9010     4.2830 c3         1 W7G       0.132700
     22 H2           3.8570    -0.0190    -4.6090 hn         1 W7G       0.339500
     23 H4           3.5840     0.7280     0.7410 hc         1 W7G       0.075200
     24 H5           5.0880     0.8790    -0.1790 hc         1 W7G       0.075200
     25 H6           3.7730    -1.7350     0.6450 hc         1 W7G       0.052700
     26 H7           5.2760    -1.5850    -0.2750 hc         1 W7G       0.052700
     27 H8           7.3270    -0.9620     0.7900 ha         1 W7G       0.133000
     28 H9           8.5930    -0.7370     2.8920 ha         1 W7G       0.113000
     29 H10          7.4000    -0.6300     5.0470 ha         1 W7G       0.110000
     30 H11          4.9380    -0.7440     5.1020 ha         1 W7G       0.125000
     31 H12          3.1180    -1.7140     4.9050 h1         1 W7G       0.032700
     32 H13          3.0090     0.0450     4.7500 h1         1 W7G       0.032700
     33 H14          1.6890    -0.9780     4.1650 h1         1 W7G       0.032700
     34 H15          0.4120    -0.2170    -2.4690 hn         1 W7G       0.376500
@<TRIPOS>BOND
     1    15    16 ar
     2    15    14 ar
     3    16    17 ar
     4    13    14 1
     5    13    12 1
     6    14    19 ar
     7    17    18 ar
     8    19    18 ar
     9    19    20 1
    10    20    21 1
    11    12    11 1
    12    10     9 2
    13    11     9 1
    14    11     4 2
    15     9     8 1
    16     4     2 1
    17     4     5 1
    18     3     2 1
    19     2     1 1
    20     8     6 1
    21     5     6 1
    22     6     7 2
    23     8    22 1
    24    12    23 1
    25    12    24 1
    26    13    25 1
    27    13    26 1
    28    15    27 1
    29    16    28 1
    30    17    29 1
    31    18    30 1
    32    21    31 1
    33    21    32 1
    34    21    33 1
    35     5    34 1
@<TRIPOS>SUBSTRUCTURE
     1 W7G         1 TEMP              0 ****  ****    0 ROOT
