@<TRIPOS>MOLECULE
W7G
   34    35     1     0     0
SMALL
bcc


@<TRIPOS>ATOM
      1 OAB          0.0000     0.0000     0.0000 o          1 W7G      -0.849300
      2 CAO          1.3470     0.0000     0.0000 c          1 W7G       0.968800
      3 OAE          1.9540     0.0000     1.0510 o          1 W7G      -0.849300
      4 CAR          2.0870    -0.0020    -1.2850 cc         1 W7G      -0.132600
      5 NAL          1.4090    -0.1270    -2.4780 ns         1 W7G       0.055900
      6 CAT          2.0620    -0.1300    -3.6520 c          1 W7G       0.559500
      7 OAC          1.4260    -0.2420    -4.6830 o          1 W7G      -0.763500
      8 NAM          3.4000    -0.0130    -3.7180 ns         1 W7G      -0.140500
      9 CAU          4.1320     0.1140    -2.5910 c          1 W7G       0.617700
     10 OAD          5.3420     0.2200    -2.6480 o          1 W7G      -0.700500
     11 CAS          3.4400     0.1250    -1.2960 cd         1 W7G      -0.269400
     12 CAK          4.2130     0.2630    -0.0100 c3         1 W7G       0.018800
     13 CAJ          4.6480    -1.1200     0.4750 c3         1 W7G       0.041900
     14 CAP          5.4200    -0.9810     1.7610 ca         1 W7G      -0.101300
     15 CAH          6.8000    -0.9150     1.7360 ca         1 W7G      -0.070000
     16 CAF          7.5110    -0.7880     2.9150 ca         1 W7G      -0.168000
     17 CAG          6.8410    -0.7280     4.1240 ca         1 W7G      -0.081000
     18 CAI          5.4620    -0.7940     4.1550 ca         1 W7G      -0.231000
     19 CAQ          4.7480    -0.9160     2.9730 ca         1 W7G       0.163100
     20 OAN          3.3900    -0.9750     3.0000 os         1 W7G      -0.234900
     21 CAA          2.7640    -0.9010     4.2830 c3         1 W7G       0.237700
     22 H2           3.8570    -0.0190    -4.6090 hn         1 W7G       0.186500
     23 H4           3.5840     0.7280     0.7410 hc         1 W7G       0.055200
     24 H5           5.0880     0.8790    -0.1790 hc         1 W7G       0.055200
     25 H6           3.7730    -1.7350     0.6450 hc         1 W7G       0.023700
     26 H7           5.2760    -1.5850    -0.2750 hc         1 W7G       0.023700
     27 H8           7.3270    -0.9620     0.7900 ha         1 W7G       0.106000
     28 H9           8.5930    -0.7370     2.8920 ha         1 W7G       0.092000
     29 H10          7.4000    -0.6300     5.0470 ha         1 W7G       0.085000
     30 H11          4.9380    -0.7440     5.1020 ha         1 W7G       0.113000
     31 H12          3.1180    -1.7140     4.9050 h1         1 W7G      -0.008967
     32 H13          3.0090     0.0450     4.7500 h1         1 W7G      -0.008967
     33 H14          1.6890    -0.9780     4.1650 h1         1 W7G      -0.008967
     34 H15          0.4120    -0.2170    -2.4690 hn         1 W7G       0.211500
@<TRIPOS>BOND
     1     1     2 1   
     2     2     3 1   
     3     2     4 1   
     4     4     5 1   
     5     4    11 2   
     6     5     6 1   
     7     5    34 1   
     8     6     7 2   
     9     6     8 1   
    10     8     9 1   
    11     8    22 1   
    12     9    10 2   
    13     9    11 1   
    14    11    12 1   
    15    12    13 1   
    16    12    23 1   
    17    12    24 1   
    18    13    14 1   
    19    13    25 1   
    20    13    26 1   
    21    14    15 ar  
    22    14    19 ar  
    23    15    16 ar  
    24    15    27 1   
    25    16    17 ar  
    26    16    28 1   
    27    17    18 ar  
    28    17    29 1   
    29    18    19 ar  
    30    18    30 1   
    31    19    20 1   
    32    20    21 1   
    33    21    31 1   
    34    21    32 1   
    35    21    33 1   
@<TRIPOS>SUBSTRUCTURE
     1 W7G         1 TEMP              0 ****  ****    0 ROOT
