@<TRIPOS>MOLECULE
molecule
   36    38     1     0     0
SMALL
bcc


@<TRIPOS>ATOM
      1 OAA          0.0000     0.0000     0.0000 o          1 W7H      -0.806800
      2 CAP          1.3460     0.0000     0.0000 c          1 W7H       0.880800
      3 OAD          1.9540     0.0000     1.0510 o          1 W7H      -0.806800
      4 CAS          2.0870    -0.0020    -1.2840 cc         1 W7H       0.042400
      5 NAN          1.4100    -0.1270    -2.4780 ns         1 W7H      -0.428100
      6 CAT          2.0640    -0.1290    -3.6520 c          1 W7H       0.798500
      7 OAB          1.4280    -0.2430    -4.6830 o          1 W7H      -0.704500
      8 NAO          3.4010    -0.0110    -3.7170 ns         1 W7H      -0.566500
      9 CAU          4.1320     0.1160    -2.5900 c          1 W7H       0.700700
     10 OAC          5.3430     0.2240    -2.6460 o          1 W7H      -0.659500
     11 CAR          3.4400     0.1270    -1.2950 cd         1 W7H      -0.281400
     12 CAM          4.2130     0.2670    -0.0090 c3         1 W7H      -0.004200
     13 CAL          4.6400    -1.1170     0.4820 c3         1 W7H      -0.029100
     14 CAQ          5.4120    -0.9780     1.7690 ca         1 W7H      -0.049300
     15 CAK          6.7640    -0.8180     1.7260 ca         1 W7H      -0.132000
     16 CAW          7.4860    -0.6860     2.9220 ca         1 W7H      -0.035000
     17 CAI          8.8820    -0.5190     2.9180 ca         1 W7H      -0.113000
     18 CAF          9.5490    -0.3950     4.0980 ca         1 W7H      -0.144000
     19 CAE          8.8690    -0.4320     5.3150 ca         1 W7H      -0.145000
     20 CAH          7.5190    -0.5940     5.3570 ca         1 W7H      -0.115000
     21 CAV          6.7950    -0.7240     4.1600 ca         1 W7H      -0.042000
     22 CAJ          5.4000    -0.8910     4.1650 ca         1 W7H      -0.139000
     23 CAG          4.7320    -1.0100     2.9840 ca         1 W7H      -0.095000
     24 H2           3.8580    -0.0160    -4.6080 hn         1 W7H       0.341500
     25 H4           5.0920     0.8760    -0.1810 hc         1 W7H       0.076200
     26 H5           3.5870     0.7380     0.7390 hc         1 W7H       0.076200
     27 H6           3.7610    -1.7270     0.6530 hc         1 W7H       0.051700
     28 H7           5.2660    -1.5880    -0.2660 hc         1 W7H       0.051700
     29 H8           7.2890    -0.9000     0.7820 ha         1 W7H       0.136000
     30 H9           9.4240    -0.4880     1.9800 ha         1 W7H       0.127000
     31 H10         10.6240    -0.2650     4.0910 ha         1 W7H       0.114000
     32 H11          9.4240    -0.3300     6.2390 ha         1 W7H       0.114000
     33 H12          7.0040    -0.6210     6.3100 ha         1 W7H       0.123000
     34 H13          4.8580    -0.9170     5.1020 ha         1 W7H       0.125000
     35 H14          3.6560    -1.1330     2.9900 ha         1 W7H       0.163000
     36 H15          0.4140    -0.2180    -2.4700 hn         1 W7H       0.377500
@<TRIPOS>BOND
     1    17    18 ar
     2    17    16 ar
     3    18    19 ar
     4    19    20 ar
     5    16    15 ar
     6    16    21 ar
     7    15    14 ar
     8    20    21 ar
     9    21    22 ar
    10    14    13 1
    11    14    23 ar
    12    13    12 1
    13    22    23 ar
    14    12    11 1
    15    10     9 2
    16    11     9 1
    17    11     4 2
    18     9     8 1
    19     3     2 1
    20     4     2 1
    21     4     5 1
    22     2     1 1
    23     8     6 1
    24     5     6 1
    25     6     7 2
    26     8    24 1
    27    12    25 1
    28    12    26 1
    29    13    27 1
    30    13    28 1
    31    15    29 1
    32    17    30 1
    33    18    31 1
    34    19    32 1
    35    20    33 1
    36    22    34 1
    37    23    35 1
    38     5    36 1
@<TRIPOS>SUBSTRUCTURE
     1 W7H         1 TEMP              0 ****  ****    0 ROOT
