@<TRIPOS>MOLECULE
W7H
   36    38     1     0     0
SMALL
bcc


@<TRIPOS>ATOM
      1 OAA          0.0000     0.0000     0.0000 o          1 W7H      -0.854800
      2 CAP          1.3460     0.0000     0.0000 c          1 W7H       0.976800
      3 OAD          1.9540     0.0000     1.0510 o          1 W7H      -0.854800
      4 CAS          2.0870    -0.0020    -1.2840 cc         1 W7H      -0.132600
      5 NAN          1.4100    -0.1270    -2.4780 ns         1 W7H       0.054900
      6 CAT          2.0640    -0.1290    -3.6520 c          1 W7H       0.559500
      7 OAB          1.4280    -0.2430    -4.6830 o          1 W7H      -0.759500
      8 NAO          3.4010    -0.0110    -3.7170 ns         1 W7H      -0.138500
      9 CAU          4.1320     0.1160    -2.5900 c          1 W7H       0.617700
     10 OAC          5.3430     0.2240    -2.6460 o          1 W7H      -0.699500
     11 CAR          3.4400     0.1270    -1.2950 cd         1 W7H      -0.271400
     12 CAM          4.2130     0.2670    -0.0090 c3         1 W7H       0.022800
     13 CAL          4.6400    -1.1170     0.4820 c3         1 W7H       0.028900
     14 CAQ          5.4120    -0.9780     1.7690 ca         1 W7H      -0.050300
     15 CAK          6.7640    -0.8180     1.7260 ca         1 W7H      -0.110000
     16 CAW          7.4860    -0.6860     2.9220 ca         1 W7H      -0.034000
     17 CAI          8.8820    -0.5190     2.9180 ca         1 W7H      -0.086000
     18 CAF          9.5490    -0.3950     4.0980 ca         1 W7H      -0.122000
     19 CAE          8.8690    -0.4320     5.3150 ca         1 W7H      -0.123000
     20 CAH          7.5190    -0.5940     5.3570 ca         1 W7H      -0.087000
     21 CAV          6.7950    -0.7240     4.1600 ca         1 W7H      -0.043000
     22 CAJ          5.4000    -0.8910     4.1650 ca         1 W7H      -0.114000
     23 CAG          4.7320    -1.0100     2.9840 ca         1 W7H      -0.068000
     24 H2           3.8580    -0.0160    -4.6080 hn         1 W7H       0.187500
     25 H4           5.0920     0.8760    -0.1810 hc         1 W7H       0.055200
     26 H5           3.5870     0.7380     0.7390 hc         1 W7H       0.055200
     27 H6           3.7610    -1.7270     0.6530 hc         1 W7H       0.022700
     28 H7           5.2660    -1.5880    -0.2660 hc         1 W7H       0.022700
     29 H8           7.2890    -0.9000     0.7820 ha         1 W7H       0.113000
     30 H9           9.4240    -0.4880     1.9800 ha         1 W7H       0.101000
     31 H10         10.6240    -0.2650     4.0910 ha         1 W7H       0.090000
     32 H11          9.4240    -0.3300     6.2390 ha         1 W7H       0.090000
     33 H12          7.0040    -0.6210     6.3100 ha         1 W7H       0.098000
     34 H13          4.8580    -0.9170     5.1020 ha         1 W7H       0.101000
     35 H14          3.6560    -1.1330     2.9900 ha         1 W7H       0.137000
     36 H15          0.4140    -0.2180    -2.4700 hn         1 W7H       0.212500
@<TRIPOS>BOND
     1     1     2 1   
     2     2     3 1   
     3     2     4 1   
     4     4     5 1   
     5     4    11 2   
     6     5     6 1   
     7     5    36 1   
     8     6     7 2   
     9     6     8 1   
    10     8     9 1   
    11     8    24 1   
    12     9    10 2   
    13     9    11 1   
    14    11    12 1   
    15    12    13 1   
    16    12    25 1   
    17    12    26 1   
    18    13    14 1   
    19    13    27 1   
    20    13    28 1   
    21    14    15 ar  
    22    14    23 ar  
    23    15    16 ar  
    24    15    29 1   
    25    16    17 ar  
    26    16    21 ar  
    27    17    18 ar  
    28    17    30 1   
    29    18    19 ar  
    30    18    31 1   
    31    19    20 ar  
    32    19    32 1   
    33    20    21 ar  
    34    20    33 1   
    35    21    22 ar  
    36    22    23 ar  
    37    22    34 1   
    38    23    35 1   
@<TRIPOS>SUBSTRUCTURE
     1 W7H         1 TEMP              0 ****  ****    0 ROOT
