@<TRIPOS>MOLECULE
molecule
   40    42     1     0     0
SMALL
bcc


@<TRIPOS>ATOM
      1 OAB          0.0000     0.0000     0.0000 o          1 W7I      -0.800800
      2 CAQ          1.3470     0.0000     0.0000 c          1 W7I       0.873800
      3 OAE          1.9540     0.0000     1.0520 o          1 W7I      -0.800800
      4 CAT          2.0880    -0.0010    -1.2830 cc         1 W7I       0.044400
      5 NAN          1.4100    -0.1250    -2.4770 ns         1 W7I      -0.428100
      6 CAV          2.0650    -0.1270    -3.6510 c          1 W7I       0.798500
      7 OAC          1.4300    -0.2380    -4.6810 o          1 W7I      -0.705500
      8 NAO          3.4030    -0.0100    -3.7160 ns         1 W7I      -0.567500
      9 CAW          4.1330     0.1160    -2.5880 c          1 W7I       0.700700
     10 OAD          5.3440     0.2230    -2.6440 o          1 W7I      -0.662500
     11 CAU          3.4410     0.1260    -1.2940 cd         1 W7I      -0.282400
     12 CAM          4.2130     0.2640    -0.0070 c3         1 W7I      -0.004200
     13 CAL          4.6490    -1.1200     0.4770 c3         1 W7I      -0.022100
     14 CAR          5.4210    -0.9830     1.7640 ca         1 W7I      -0.069300
     15 CAJ          6.7790    -0.9160     1.7270 ca         1 W7I      -0.102000
     16 CAX          7.5030    -0.7870     2.9250 ca         1 W7I      -0.069000
     17 CAH          8.9070    -0.7150     2.9230 ca         1 W7I      -0.101000
     18 CAF          9.5770    -0.5900     4.1020 ca         1 W7I      -0.159000
     19 CAG          8.8910    -0.5310     5.3140 ca         1 W7I      -0.132000
     20 CAI          7.5330    -0.5990     5.3550 ca         1 W7I      -0.130000
     21 CAY          6.8070    -0.7280     4.1580 ca         1 W7I       0.002000
     22 CAK          5.4040    -0.7990     4.1610 ca         1 W7I      -0.259000
     23 CAS          4.7310    -0.9190     2.9780 ca         1 W7I       0.172100
     24 OAP          3.3740    -0.9820     2.9820 os         1 W7I      -0.258900
     25 CAA          2.7250    -0.9120     4.2530 c3         1 W7I       0.132700
     26 H2           0.4140    -0.2140    -2.4700 hn         1 W7I       0.376500
     27 H3           3.8610    -0.0150    -4.6060 hn         1 W7I       0.340500
     28 H4           3.5850     0.7270     0.7440 hc         1 W7I       0.076200
     29 H5           5.0890     0.8790    -0.1760 hc         1 W7I       0.076200
     30 H6           5.2790    -1.5830    -0.2740 hc         1 W7I       0.054700
     31 H7           3.7740    -1.7360     0.6450 hc         1 W7I       0.054700
     32 H8           7.3040    -1.0630     0.7910 ha         1 W7I       0.140000
     33 H9           9.4530    -0.7590     1.9880 ha         1 W7I       0.125000
     34 H10         10.6580    -0.5340     4.0980 ha         1 W7I       0.114000
     35 H11          9.4490    -0.4320     6.2380 ha         1 W7I       0.112000
     36 H12          7.0130    -0.5530     6.3050 ha         1 W7I       0.122000
     37 H13          4.8590    -0.7510     5.0960 ha         1 W7I       0.132000
     38 H14          2.9590     0.0340     4.7270 h1         1 W7I       0.035367
     39 H15          3.0710    -1.7250     4.8810 h1         1 W7I       0.035367
     40 H16          1.6540    -0.9930     4.1170 h1         1 W7I       0.035367
@<TRIPOS>BOND
     1    17    18 ar
     2    17    16 ar
     3    18    19 ar
     4    15    16 ar
     5    15    14 ar
     6    16    21 ar
     7    13    14 1
     8    13    12 1
     9    19    20 ar
    10    14    23 ar
    11    21    20 ar
    12    21    22 ar
    13    23    22 ar
    14    23    24 1
    15    24    25 1
    16    12    11 1
    17    10     9 2
    18    11     9 1
    19    11     4 2
    20     9     8 1
    21     4     2 1
    22     4     5 1
    23     3     2 1
    24     2     1 1
    25     8     6 1
    26     5     6 1
    27     6     7 2
    28     5    26 1
    29     8    27 1
    30    12    28 1
    31    12    29 1
    32    13    30 1
    33    13    31 1
    34    15    32 1
    35    17    33 1
    36    18    34 1
    37    19    35 1
    38    20    36 1
    39    22    37 1
    40    25    38 1
    41    25    39 1
    42    25    40 1
@<TRIPOS>SUBSTRUCTURE
     1 W7I         1 TEMP              0 ****  ****    0 ROOT
