@<TRIPOS>MOLECULE
W7I
   40    42     1     0     0
SMALL
bcc


@<TRIPOS>ATOM
      1 OAB          0.0000     0.0000     0.0000 o          1 W7I      -0.849800
      2 CAQ          1.3470     0.0000     0.0000 c          1 W7I       0.968800
      3 OAE          1.9540     0.0000     1.0520 o          1 W7I      -0.849800
      4 CAT          2.0880    -0.0010    -1.2830 cc         1 W7I      -0.129600
      5 NAN          1.4100    -0.1250    -2.4770 ns         1 W7I       0.053900
      6 CAV          2.0650    -0.1270    -3.6510 c          1 W7I       0.560500
      7 OAC          1.4300    -0.2380    -4.6810 o          1 W7I      -0.760500
      8 NAO          3.4030    -0.0100    -3.7160 ns         1 W7I      -0.139500
      9 CAW          4.1330     0.1160    -2.5880 c          1 W7I       0.617700
     10 OAD          5.3440     0.2230    -2.6440 o          1 W7I      -0.701500
     11 CAU          3.4410     0.1260    -1.2940 cd         1 W7I      -0.271400
     12 CAM          4.2130     0.2640    -0.0070 c3         1 W7I       0.020800
     13 CAL          4.6490    -1.1200     0.4770 c3         1 W7I       0.034900
     14 CAR          5.4210    -0.9830     1.7640 ca         1 W7I      -0.077300
     15 CAJ          6.7790    -0.9160     1.7270 ca         1 W7I      -0.075000
     16 CAX          7.5030    -0.7870     2.9250 ca         1 W7I      -0.072000
     17 CAH          8.9070    -0.7150     2.9230 ca         1 W7I      -0.071000
     18 CAF          9.5770    -0.5900     4.1020 ca         1 W7I      -0.139000
     19 CAG          8.8910    -0.5310     5.3140 ca         1 W7I      -0.109000
     20 CAI          7.5330    -0.5990     5.3550 ca         1 W7I      -0.106000
     21 CAY          6.8070    -0.7280     4.1580 ca         1 W7I       0.009000
     22 CAK          5.4040    -0.7990     4.1610 ca         1 W7I      -0.258000
     23 CAS          4.7310    -0.9190     2.9780 ca         1 W7I       0.184100
     24 OAP          3.3740    -0.9820     2.9820 os         1 W7I      -0.232900
     25 CAA          2.7250    -0.9120     4.2530 c3         1 W7I       0.237700
     26 H2           0.4140    -0.2140    -2.4700 hn         1 W7I       0.212500
     27 H3           3.8610    -0.0150    -4.6060 hn         1 W7I       0.187500
     28 H4           3.5850     0.7270     0.7440 hc         1 W7I       0.055700
     29 H5           5.0890     0.8790    -0.1760 hc         1 W7I       0.055700
     30 H6           5.2790    -1.5830    -0.2740 hc         1 W7I       0.025700
     31 H7           3.7740    -1.7360     0.6450 hc         1 W7I       0.025700
     32 H8           7.3040    -1.0630     0.7910 ha         1 W7I       0.114000
     33 H9           9.4530    -0.7590     1.9880 ha         1 W7I       0.099000
     34 H10         10.6580    -0.5340     4.0980 ha         1 W7I       0.091000
     35 H11          9.4490    -0.4320     6.2380 ha         1 W7I       0.088000
     36 H12          7.0130    -0.5530     6.3050 ha         1 W7I       0.098000
     37 H13          4.8590    -0.7510     5.0960 ha         1 W7I       0.123000
     38 H14          2.9590     0.0340     4.7270 h1         1 W7I      -0.006633
     39 H15          3.0710    -1.7250     4.8810 h1         1 W7I      -0.006633
     40 H16          1.6540    -0.9930     4.1170 h1         1 W7I      -0.006633
@<TRIPOS>BOND
     1     1     2 1   
     2     2     3 1   
     3     2     4 1   
     4     4     5 1   
     5     4    11 2   
     6     5     6 1   
     7     5    26 1   
     8     6     7 2   
     9     6     8 1   
    10     8     9 1   
    11     8    27 1   
    12     9    10 2   
    13     9    11 1   
    14    11    12 1   
    15    12    13 1   
    16    12    28 1   
    17    12    29 1   
    18    13    14 1   
    19    13    30 1   
    20    13    31 1   
    21    14    15 ar  
    22    14    23 ar  
    23    15    16 ar  
    24    15    32 1   
    25    16    17 ar  
    26    16    21 ar  
    27    17    18 ar  
    28    17    33 1   
    29    18    19 ar  
    30    18    34 1   
    31    19    20 ar  
    32    19    35 1   
    33    20    21 ar  
    34    20    36 1   
    35    21    22 ar  
    36    22    23 ar  
    37    22    37 1   
    38    23    24 1   
    39    24    25 1   
    40    25    38 1   
    41    25    39 1   
    42    25    40 1   
@<TRIPOS>SUBSTRUCTURE
     1 W7I         1 TEMP              0 ****  ****    0 ROOT
