@<TRIPOS>MOLECULE
W7J
   38    40     1     0     0
SMALL
bcc


@<TRIPOS>ATOM
      1 OAJ          0.0000     0.0000     0.0000 o          1 W7J      -0.851300
      2 CAI          1.2140     0.0000     0.0000 c          1 W7J       0.971800
      3 OAK          1.8870     0.0000     1.1670 o          1 W7J      -0.851300
      4 C4           1.9550    -0.0070    -1.2830 cc         1 W7J      -0.145600
      5 N3           3.3280     0.1160    -1.2940 ns         1 W7J       0.055900
      6 C2           4.0180     0.1110    -2.4460 c          1 W7J       0.559500
      7 O2           5.2280     0.2230    -2.4120 o          1 W7J      -0.776500
      8 N1           3.4060    -0.0140    -3.6370 ns         1 W7J      -0.143500
      9 C6           2.0650    -0.1390    -3.7060 c          1 W7J       0.613700
     10 O6           1.5080    -0.2530    -4.7820 o          1 W7J      -0.695500
     11 C5           1.2890    -0.1420    -2.4590 cd         1 W7J      -0.253400
     12 CAL         -0.2110    -0.2860    -2.4840 c3         1 W7J       0.017800
     13 CAM         -0.8530     1.0970    -2.6150 c3         1 W7J       0.041900
     14 CAN         -2.3540     0.9530    -2.6400 ca         1 W7J      -0.100300
     15 CAO         -3.0500     0.9880    -1.4710 ca         1 W7J      -0.077000
     16 CAP         -4.4480     0.8550    -1.4880 ca         1 W7J      -0.039000
     17 CAT         -5.1950     0.8870    -0.2960 ca         1 W7J      -0.143000
     18 CAU         -6.5460     0.7580    -0.3370 ca         1 W7J      -0.058000
     19 CAV         -7.2170     0.5900    -1.5620 ca         1 W7J      -0.116600
     20 CAX         -8.6870     0.4500    -1.5790 c          1 W7J       0.980200
     21 OAZ         -9.3800     0.4840    -0.4230 o          1 W7J      -0.898800
     22 OAY         -9.2710     0.3050    -2.6330 o          1 W7J      -0.898800
     23 CAW         -6.5100     0.5540    -2.7520 ca         1 W7J      -0.090000
     24 CAQ         -5.1130     0.6870    -2.7290 ca         1 W7J      -0.054000
     25 CAR         -4.3600     0.6570    -3.9170 ca         1 W7J      -0.110000
     26 CAS         -3.0070     0.7930    -3.8600 ca         1 W7J      -0.119000
     27 H2           3.9490    -0.0140    -4.4780 hn         1 W7J       0.183500
     28 H4          -0.5010    -0.9000    -3.3270 hc         1 W7J       0.056700
     29 H5          -0.5440    -0.7530    -1.5650 hc         1 W7J       0.056700
     30 H6          -0.5640     1.7120    -1.7710 hc         1 W7J       0.013700
     31 H7          -0.5200     1.5650    -3.5330 hc         1 W7J       0.013700
     32 H8          -2.5390     1.2120    -0.5420 ha         1 W7J       0.127000
     33 H9          -4.6920     1.0160     0.6540 ha         1 W7J       0.096000
     34 H10         -7.1140     0.7840     0.5850 ha         1 W7J       0.121000
     35 H12         -7.0310     0.4240    -3.6930 ha         1 W7J       0.119000
     36 H13         -4.8550     0.5330    -4.8720 ha         1 W7J       0.091000
     37 H14         -2.4300     0.7770    -4.7770 ha         1 W7J       0.093000
     38 H15          3.8200     0.2120    -0.4270 hn         1 W7J       0.209500
@<TRIPOS>BOND
     1     1     2 1   
     2     2     3 1   
     3     2     4 1   
     4     4     5 1   
     5     4    11 2   
     6     5     6 1   
     7     5    38 1   
     8     6     7 2   
     9     6     8 1   
    10     8     9 1   
    11     8    27 1   
    12     9    10 2   
    13     9    11 1   
    14    11    12 1   
    15    12    13 1   
    16    12    28 1   
    17    12    29 1   
    18    13    14 1   
    19    13    30 1   
    20    13    31 1   
    21    14    15 ar  
    22    14    26 ar  
    23    15    16 ar  
    24    15    32 1   
    25    16    17 ar  
    26    16    24 ar  
    27    17    18 ar  
    28    17    33 1   
    29    18    19 ar  
    30    18    34 1   
    31    19    20 1   
    32    19    23 ar  
    33    20    21 1   
    34    20    22 1   
    35    23    24 ar  
    36    23    35 1   
    37    24    25 ar  
    38    25    26 ar  
    39    25    36 1   
    40    26    37 1   
@<TRIPOS>SUBSTRUCTURE
     1 W7J         1 TEMP              0 ****  ****    0 ROOT
