@<TRIPOS>MOLECULE
molecule
   44    46     1     0     0
SMALL
bcc


@<TRIPOS>ATOM
      1 OAC          0.0000     0.0000     0.0000 o          1 W7K      -0.800800
      2 CAR          1.2140     0.0000     0.0000 c          1 W7K       0.873800
      3 OAF          1.8870     0.0000     1.1670 o          1 W7K      -0.800800
      4 CAV          1.9560    -0.0040    -1.2840 cc         1 W7K       0.042400
      5 NAN          3.3280     0.1200    -1.2940 ns         1 W7K      -0.427100
      6 CAX          4.0170     0.1190    -2.4470 c          1 W7K       0.798500
      7 OAD          5.2270     0.2310    -2.4130 o          1 W7K      -0.706500
      8 NAO          3.4050    -0.0040    -3.6380 ns         1 W7K      -0.567500
      9 CAY          2.0640    -0.1310    -3.7060 c          1 W7K       0.699700
     10 OAE          1.5060    -0.2420    -4.7830 o          1 W7K      -0.663500
     11 CAW          1.2880    -0.1370    -2.4590 cd         1 W7K      -0.281400
     12 CAM         -0.2130    -0.2760    -2.4840 c3         1 W7K      -0.004200
     13 CAL         -0.8510     1.1070    -2.6260 c3         1 W7K      -0.021100
     14 CAT         -2.3510     0.9690    -2.6510 ca         1 W7K      -0.078300
     15 CAJ         -2.9970     0.8960    -3.8450 ca         1 W7K      -0.092000
     16 CAZ         -4.3970     0.7660    -3.8740 ca         1 W7K      -0.099000
     17 CAH         -5.0960     0.6880    -5.0920 ca         1 W7K      -0.065000
     18 CAG         -6.4490     0.5620    -5.0850 ca         1 W7K      -0.233000
     19 CAS         -7.1610     0.5080    -3.8830 ca         1 W7K       0.129100
     20 OAP         -8.5150     0.3810    -3.9090 os         1 W7K      -0.338900
     21 CAA         -9.1340     0.3110    -5.1950 c3         1 W7K       0.132700
     22 CAI         -6.5140     0.5800    -2.6820 ca         1 W7K      -0.171000
     23 CBA         -5.1160     0.7110    -2.6530 ca         1 W7K       0.036000
     24 CAK         -4.4180     0.7900    -1.4360 ca         1 W7K      -0.266000
     25 CAU         -3.0580     0.9100    -1.4460 ca         1 W7K       0.181100
     26 OAQ         -2.3820     0.9780    -0.2690 os         1 W7K      -0.258900
     27 CAB         -3.1590     0.9130     0.9300 c3         1 W7K       0.131700
     28 H2           3.9480    -0.0010    -4.4790 hn         1 W7K       0.340500
     29 H4          -0.5040    -0.8960    -3.3230 hc         1 W7K       0.076200
     30 H5          -0.5480    -0.7360    -1.5620 hc         1 W7K       0.076200
     31 H6          -0.5600     1.7270    -1.7860 hc         1 W7K       0.054700
     32 H7          -0.5150     1.5670    -3.5470 hc         1 W7K       0.054700
     33 H8          -2.4480     1.0370    -4.7680 ha         1 W7K       0.139000
     34 H9          -4.5580     0.7280    -6.0310 ha         1 W7K       0.127000
     35 H10         -6.9840     0.5020    -6.0260 ha         1 W7K       0.121000
     36 H11         -8.7510    -0.5470    -5.7340 h1         1 W7K       0.034367
     37 H12        -10.2060     0.2120    -5.0750 h1         1 W7K       0.034367
     38 H13         -8.9150     1.2140    -5.7520 h1         1 W7K       0.034367
     39 H14         -7.0770     0.5370    -1.7570 ha         1 W7K       0.138000
     40 H15         -4.9550     0.7450    -0.4960 ha         1 W7K       0.135000
     41 H16         -2.5040     0.9970     1.7890 h1         1 W7K       0.036367
     42 H17         -3.8760     1.7250     0.9410 h1         1 W7K       0.036367
     43 H18         -3.6850    -0.0340     0.9680 h1         1 W7K       0.036367
     44 H19          3.8190     0.2130    -0.4270 hn         1 W7K       0.377500
@<TRIPOS>BOND
     1    17    18 ar
     2    17    16 ar
     3    18    19 ar
     4    15    16 ar
     5    15    14 ar
     6    16    23 ar
     7    19    20 1
     8    19    22 ar
     9    14    13 1
    10    14    25 ar
    11    13    12 1
    12    20    21 1
    13    23    22 ar
    14    23    24 ar
    15    25    24 ar
    16    25    26 1
    17    26    27 1
    18    12    11 1
    19    10     9 2
    20    11     9 1
    21    11     4 2
    22     9     8 1
    23     4     2 1
    24     4     5 1
    25     1     2 1
    26     2     3 1
    27     8     6 1
    28     5     6 1
    29     6     7 2
    30     8    28 1
    31    12    29 1
    32    12    30 1
    33    13    31 1
    34    13    32 1
    35    15    33 1
    36    17    34 1
    37    18    35 1
    38    21    36 1
    39    21    37 1
    40    21    38 1
    41    22    39 1
    42    24    40 1
    43    27    41 1
    44    27    42 1
    45    27    43 1
    46     5    44 1
@<TRIPOS>SUBSTRUCTURE
     1 W7K         1 TEMP              0 ****  ****    0 ROOT
