@<TRIPOS>MOLECULE
molecule
   40    42     1     0     0
SMALL
bcc


@<TRIPOS>ATOM
      1 OAB          0.0000     0.0000     0.0000 o          1 W7L      -0.805800
      2 CAQ          1.2140     0.0000     0.0000 c          1 W7L       0.878800
      3 OAE          1.8870     0.0000     1.1670 o          1 W7L      -0.805800
      4 CAT          1.9550    -0.0070    -1.2830 cc         1 W7L       0.045400
      5 NAN          3.3270    -0.1450    -1.2930 ns         1 W7L      -0.428100
      6 CAV          4.0170    -0.1540    -2.4450 c          1 W7L       0.798500
      7 OAC          5.2260    -0.2800    -2.4100 o          1 W7L      -0.703500
      8 NAO          3.4070    -0.0280    -3.6370 ns         1 W7L      -0.567500
      9 CAW          2.0660     0.1130    -3.7060 c          1 W7L       0.702700
     10 OAD          1.5110     0.2260    -4.7830 o          1 W7L      -0.666500
     11 CAU          1.2890     0.1190    -2.4600 cd         1 W7L      -0.285400
     12 CAM         -0.2090     0.2730    -2.4860 c3         1 W7L      -0.001200
     13 CAL         -0.8620    -1.1110    -2.5380 c3         1 W7L      -0.030100
     14 CAS         -2.3570    -0.9560    -2.6580 ca         1 W7L      -0.033300
     15 CAG         -3.1410    -1.0030    -1.5480 ca         1 W7L      -0.135000
     16 CAF         -4.5250    -0.8620    -1.6380 ca         1 W7L      -0.108000
     17 CAI         -5.1320    -0.6730    -2.8420 ca         1 W7L      -0.156000
     18 CAX         -4.3540    -0.6180    -4.0130 ca         1 W7L      -0.001000
     19 CAK         -4.9460    -0.4240    -5.2710 ca         1 W7L      -0.174000
     20 CAY         -2.9470    -0.7560    -3.9180 ca         1 W7L      -0.068000
     21 CAJ         -2.1680    -0.7020    -5.0870 ca         1 W7L      -0.060000
     22 CAH         -2.7710    -0.5170    -6.2920 ca         1 W7L      -0.222000
     23 CAR         -4.1590    -0.3760    -6.3860 ca         1 W7L       0.129100
     24 OAP         -4.7320    -0.1890    -7.6040 os         1 W7L      -0.341900
     25 CAA         -3.8590    -0.1470    -8.7340 c3         1 W7L       0.131700
     26 H2           3.9500    -0.0390    -4.4780 hn         1 W7L       0.341500
     27 H4          -0.4990     0.8420    -3.3610 hc         1 W7L       0.074700
     28 H5          -0.5340     0.7920    -1.5930 hc         1 W7L       0.074700
     29 H6          -0.4860    -1.6560    -3.3940 hc         1 W7L       0.054700
     30 H7          -0.6280    -1.6550    -1.6310 hc         1 W7L       0.054700
     31 H8          -2.6830    -1.1530    -0.5780 ha         1 W7L       0.157000
     32 H9          -5.1260    -0.9040    -0.7380 ha         1 W7L       0.119000
     33 H10         -6.2090    -0.5640    -2.8980 ha         1 W7L       0.119000
     34 H11         -6.0200    -0.3130    -5.3560 ha         1 W7L       0.134000
     35 H12         -1.0910    -0.8090    -5.0280 ha         1 W7L       0.163000
     36 H13         -2.1680    -0.4760    -7.1910 ha         1 W7L       0.129000
     37 H14         -4.4410     0.0060    -9.6350 h1         1 W7L       0.035700
     38 H15         -3.3190    -1.0840    -8.8080 h1         1 W7L       0.035700
     39 H16         -3.1550     0.6670    -8.6160 h1         1 W7L       0.035700
     40 H17          3.8180    -0.2410    -0.4260 hn         1 W7L       0.377500
@<TRIPOS>BOND
     1    25    24 1
     2    17    16 ar
     3    17    18 ar
     4    16    15 ar
     5    19    18 ar
     6    19    23 ar
     7    18    20 ar
     8    24    23 1
     9    15    14 ar
    10    23    22 ar
    11    20    14 ar
    12    20    21 ar
    13    14    13 1
    14    22    21 ar
    15    13    12 1
    16    12    11 1
    17    10     9 2
    18    11     9 1
    19    11     4 2
    20     9     8 1
    21     4     2 1
    22     4     5 1
    23     2     1 1
    24     2     3 1
    25     8     6 1
    26     5     6 1
    27     6     7 2
    28     8    26 1
    29    12    27 1
    30    12    28 1
    31    13    29 1
    32    13    30 1
    33    15    31 1
    34    16    32 1
    35    17    33 1
    36    19    34 1
    37    21    35 1
    38    22    36 1
    39    25    37 1
    40    25    38 1
    41    25    39 1
    42     5    40 1
@<TRIPOS>SUBSTRUCTURE
     1 W7L         1 TEMP              0 ****  ****    0 ROOT
