@<TRIPOS>MOLECULE
W7M
   42    44     1     0     0
SMALL
bcc


@<TRIPOS>ATOM
      1 OAB          0.0000     0.0000     0.0000 o          1 W7M      -0.853800
      2 CAR          1.3470     0.0000     0.0000 c          1 W7M       0.974800
      3 OAF          1.9540     0.0000     1.0520 o          1 W7M      -0.853800
      4 CAV          2.0880    -0.0010    -1.2830 cc         1 W7M      -0.129600
      5 NAO          1.4120    -0.1260    -2.4780 ns         1 W7M       0.054900
      6 CAX          2.0650    -0.1300    -3.6510 c          1 W7M       0.560500
      7 OAD          1.4300    -0.2430    -4.6820 o          1 W7M      -0.758500
      8 NAP          3.4030    -0.0120    -3.7160 ns         1 W7M      -0.139500
      9 CAY          4.1340     0.1140    -2.5890 c          1 W7M       0.618700
     10 OAE          5.3450     0.2220    -2.6440 o          1 W7M      -0.700500
     11 CAW          3.4410     0.1260    -1.2950 cd         1 W7M      -0.273400
     12 CAN          4.2130     0.2710    -0.0080 c3         1 W7M       0.024800
     13 CAM          4.6400    -1.1120     0.4880 c3         1 W7M       0.027900
     14 CAT          5.4120    -0.9670     1.7760 ca         1 W7M      -0.015300
     15 CAK          4.7460    -0.9940     2.9620 ca         1 W7M      -0.069000
     16 CAG          6.7960    -0.8140     1.7320 ca         1 W7M      -0.088000
     17 CAI          7.5230    -0.6830     2.8750 ca         1 W7M      -0.126000
     18 CBA          6.8690    -0.7000     4.1200 ca         1 W7M      -0.068000
     19 CAL          7.5880    -0.5660     5.3180 ca         1 W7M      -0.008000
     20 CAZ          5.4600    -0.8610     4.1640 ca         1 W7M      -0.031000
     21 CAJ          4.8010    -0.8850     5.4070 ca         1 W7M      -0.089000
     22 CAH          5.5120    -0.7530     6.5570 ca         1 W7M      -0.086000
     23 CAU          6.9080    -0.5890     6.5250 ca         1 W7M      -0.174600
     24 CAS          7.6580    -0.4500     7.7890 c          1 W7M       0.726700
     25 OAC          8.8650    -0.3160     7.7690 o          1 W7M      -0.609000
     26 OAQ          7.0030    -0.4710     8.9670 os         1 W7M      -0.415900
     27 CAA          7.8040    -0.3280    10.1700 c3         1 W7M       0.268700
     28 H2           3.8610    -0.0180    -4.6070 hn         1 W7M       0.188500
     29 H4           3.5850     0.7440     0.7380 hc         1 W7M       0.054700
     30 H5           5.0910     0.8810    -0.1790 hc         1 W7M       0.054700
     31 H6           5.2680    -1.5850    -0.2570 hc         1 W7M       0.023200
     32 H7           3.7620    -1.7220     0.6600 hc         1 W7M       0.023200
     33 H8           3.7690    -1.3860     3.2170 ha         1 W7M       0.133000
     34 H9           7.5380    -0.8880     0.9460 ha         1 W7M       0.109000
     35 H10          8.5970    -0.5680     2.7880 ha         1 W7M       0.101000
     36 H11          8.6640    -0.4390     5.2980 ha         1 W7M       0.119000
     37 H12          3.7250    -1.0100     5.4470 ha         1 W7M       0.115000
     38 H13          4.9960    -0.7690     7.5090 ha         1 W7M       0.108000
     39 H14          8.5230    -1.1360    10.2230 h1         1 W7M      -0.003633
     40 H15          7.1580    -0.3610    11.0400 h1         1 W7M      -0.003633
     41 H16          8.3260     0.6210    10.1450 h1         1 W7M      -0.003633
     42 H17          0.4150    -0.2130    -2.4710 hn         1 W7M       0.212500
@<TRIPOS>BOND
     1     1     2 1   
     2     2     3 1   
     3     2     4 1   
     4     4     5 1   
     5     4    11 2   
     6     5     6 1   
     7     5    42 1   
     8     6     7 2   
     9     6     8 1   
    10     8     9 1   
    11     8    28 1   
    12     9    10 2   
    13     9    11 1   
    14    11    12 1   
    15    12    13 1   
    16    12    29 1   
    17    12    30 1   
    18    13    14 1   
    19    13    31 1   
    20    13    32 1   
    21    14    15 ar  
    22    14    16 ar  
    23    15    20 ar  
    24    15    33 1   
    25    16    17 ar  
    26    16    34 1   
    27    17    18 ar  
    28    17    35 1   
    29    18    19 ar  
    30    18    20 ar  
    31    19    23 ar  
    32    19    36 1   
    33    20    21 ar  
    34    21    22 ar  
    35    21    37 1   
    36    22    23 ar  
    37    22    38 1   
    38    23    24 1   
    39    24    25 2   
    40    24    26 1   
    41    26    27 1   
    42    27    39 1   
    43    27    40 1   
    44    27    41 1   
@<TRIPOS>SUBSTRUCTURE
     1 W7M         1 TEMP              0 ****  ****    0 ROOT
