@<TRIPOS>MOLECULE
W7N
   47    49     1     0     0
SMALL
bcc


@<TRIPOS>ATOM
      1 OAA          0.0000     0.0000     0.0000 o          1 W7N      -0.853300
      2 CAT          1.3470     0.0000     0.0000 c          1 W7N       0.973800
      3 OAF          1.9540     0.0000     1.0520 o          1 W7N      -0.853300
      4 CAY          2.0880     0.0000    -1.2840 cc         1 W7N      -0.129600
      5 NAR          1.4100    -0.1240    -2.4780 ns         1 W7N       0.054900
      6 CAZ          2.0640    -0.1260    -3.6520 c          1 W7N       0.560500
      7 OAC          1.4290    -0.2370    -4.6830 o          1 W7N      -0.759500
      8 NAS          3.4010    -0.0070    -3.7170 ns         1 W7N      -0.138500
      9 CBA          4.1320     0.1200    -2.5900 c          1 W7N       0.617700
     10 OAD          5.3430     0.2290    -2.6470 o          1 W7N      -0.700500
     11 CAX          3.4410     0.1290    -1.2950 cd         1 W7N      -0.273400
     12 CAP          4.2130     0.2680    -0.0080 c3         1 W7N       0.024800
     13 CAO          4.6400    -1.1170     0.4810 c3         1 W7N       0.025900
     14 CAV          5.4130    -0.9790     1.7680 ca         1 W7N       0.008700
     15 CAK          6.7640    -0.8180     1.7250 ca         1 W7N      -0.117000
     16 CAG          4.7330    -1.0120     2.9830 ca         1 W7N      -0.056000
     17 CAI          5.4000    -0.8880     4.1630 ca         1 W7N      -0.134000
     18 CBC          6.7970    -0.7260     4.1590 ca         1 W7N      -0.066000
     19 CAL          7.5160    -0.5970     5.3560 ca         1 W7N       0.000000
     20 CBB          7.4880    -0.6880     2.9210 ca         1 W7N      -0.037000
     21 CAJ          8.8860    -0.5200     2.9080 ca         1 W7N      -0.094000
     22 CAH          9.5650    -0.3970     4.0770 ca         1 W7N      -0.105000
     23 CAW          8.8920    -0.4390     5.3110 ca         1 W7N      -0.190600
     24 CAU          9.6560    -0.3010     6.5680 c          1 W7N       0.605700
     25 OAB          9.0770    -0.3360     7.6370 o          1 W7N      -0.669100
     26 NAQ         10.9930    -0.1370     6.5300 ns         1 W7N      -0.202900
     27 CAN         11.7500    -0.0000     7.7770 c3         1 W7N       0.045000
     28 CAM         13.2360     0.1720     7.4540 c3         1 W7N       0.209400
     29 OAE         13.4320     1.4040     6.7560 oh         1 W7N      -0.590800
     30 H2           0.4140    -0.2140    -2.4710 hn         1 W7N       0.212500
     31 H3           3.8580    -0.0120    -4.6070 hn         1 W7N       0.187500
     32 H4           3.5870     0.7380     0.7400 hc         1 W7N       0.055700
     33 H5           5.0920     0.8770    -0.1790 hc         1 W7N       0.055700
     34 H6           5.2660    -1.5880    -0.2670 hc         1 W7N       0.023200
     35 H7           3.7610    -1.7270     0.6520 hc         1 W7N       0.023200
     36 H8           7.5050    -0.9270     0.9410 ha         1 W7N       0.117000
     37 H9           3.7850    -1.3420     3.3930 ha         1 W7N       0.131000
     38 H10          4.8560    -0.9320     5.0990 ha         1 W7N       0.106000
     39 H11          7.0010    -0.6280     6.3090 ha         1 W7N       0.123000
     40 H12          9.4190    -0.4860     1.9660 ha         1 W7N       0.104000
     41 H13         10.6410    -0.2730     4.0590 ha         1 W7N       0.092000
     42 H14         11.4710    -0.1360     5.6510 hn         1 W7N       0.188500
     43 H15         11.3960     0.8660     8.3210 h1         1 W7N       0.028700
     44 H16         11.6130    -0.8880     8.3820 h1         1 W7N       0.028700
     45 H17         13.8060     0.1850     8.3750 h1         1 W7N      -0.010300
     46 H18         13.5690    -0.6510     6.8340 h1         1 W7N      -0.010300
     47 H19         14.3230     1.6900     6.8670 ho         1 W7N       0.390000
@<TRIPOS>BOND
     1     1     2 1   
     2     2     3 1   
     3     2     4 1   
     4     4     5 1   
     5     4    11 2   
     6     5     6 1   
     7     5    30 1   
     8     6     7 2   
     9     6     8 1   
    10     8     9 1   
    11     8    31 1   
    12     9    10 2   
    13     9    11 1   
    14    11    12 1   
    15    12    13 1   
    16    12    32 1   
    17    12    33 1   
    18    13    14 1   
    19    13    34 1   
    20    13    35 1   
    21    14    15 ar  
    22    14    16 ar  
    23    15    20 ar  
    24    15    36 1   
    25    16    17 ar  
    26    16    37 1   
    27    17    18 ar  
    28    17    38 1   
    29    18    19 ar  
    30    18    20 ar  
    31    19    23 ar  
    32    19    39 1   
    33    20    21 ar  
    34    21    22 ar  
    35    21    40 1   
    36    22    23 ar  
    37    22    41 1   
    38    23    24 1   
    39    24    25 2   
    40    24    26 1   
    41    26    27 1   
    42    26    42 1   
    43    27    28 1   
    44    27    43 1   
    45    27    44 1   
    46    28    29 1   
    47    28    45 1   
    48    28    46 1   
    49    29    47 1   
@<TRIPOS>SUBSTRUCTURE
     1 W7N         1 TEMP              0 ****  ****    0 ROOT
