@<TRIPOS>MOLECULE
molecule
   32    33     1     0     0
SMALL
bcc


@<TRIPOS>ATOM
      1 OAA          0.0000     0.0000     0.0000 o          1 W7O      -0.848800
      2 CAO          1.2150     0.0000     0.0000 c          1 W7O       0.885200
      3 OAE          1.8890     0.0000     1.1660 o          1 W7O      -0.848800
      4 CAR          1.9530    -0.0050    -1.2810 ca         1 W7O      -0.116600
      5 CAJ          1.2570    -0.0100    -2.4900 ca         1 W7O      -0.082000
      6 CAI          3.3490     0.0010    -1.2850 ca         1 W7O      -0.111000
      7 CAG          4.0320    -0.0030    -2.4830 ca         1 W7O      -0.182000
      8 CAH          3.3370    -0.0130    -3.6790 ca         1 W7O      -0.155000
      9 CAQ          1.9530    -0.0140    -3.6820 ca         1 W7O      -0.102300
     10 CAK          1.2030    -0.0210    -4.9900 c3         1 W7O      -0.015100
     11 CAL          0.9490     1.4200    -5.4380 c3         1 W7O      -0.009200
     12 CAS          0.2000     1.4130    -6.7460 cc         1 W7O      -0.265400
     13 CAV          0.9190     1.3600    -8.0250 c          1 W7O       0.695700
     14 OAD          2.1350     1.3190    -8.0490 o          1 W7O      -0.660500
     15 NAN          0.2090     1.3560    -9.1710 ns         1 W7O      -0.569500
     16 CAU         -1.1340     1.4010    -9.1400 c          1 W7O       0.796500
     17 OAC         -1.7510     1.3960   -10.1880 o          1 W7O      -0.728500
     18 NAM         -1.8140     1.4500    -7.9830 ns         1 W7O      -0.426100
     19 CAT         -1.1580     1.4520    -6.7710 cd         1 W7O       0.027400
     20 CAP         -1.9280     1.5000    -5.5040 c          1 W7O       0.873800
     21 OAF         -3.2640     1.6690    -5.5340 o          1 W7O      -0.795800
     22 OAB         -1.3540     1.3880    -4.4400 o          1 W7O      -0.795800
     23 H2           0.1740    -0.0110    -2.4940 ha         1 W7O       0.174000
     24 H3           3.8940     0.0090    -0.3490 ha         1 W7O       0.137000
     25 H4           5.1150    -0.0000    -2.4870 ha         1 W7O       0.087000
     26 H5           3.8780    -0.0160    -4.6180 ha         1 W7O       0.101000
     27 H6           1.7910    -0.5340    -5.7410 hc         1 W7O       0.038700
     28 H7           0.2560    -0.5310    -4.8610 hc         1 W7O       0.038700
     29 H8           1.8960     1.9310    -5.5670 hc         1 W7O       0.076700
     30 H9           0.3610     1.9340    -4.6870 hc         1 W7O       0.076700
     31 H10          0.6850     1.3190   -10.0510 hn         1 W7O       0.332500
     32 H11         -2.8150     1.4810    -8.0010 hn         1 W7O       0.373500
@<TRIPOS>BOND
     1     1     2 1
     2     3     2 1
     3     2     4 1
     4     4     5 ar
     5     4     6 ar
     6     5     9 ar
     7     6     7 ar
     8     9    10 1
     9     9     8 ar
    10    10    11 1
    11     7     8 ar
    12    11    12 1
    13    14    13 2
    14    12    13 1
    15    12    19 2
    16    13    15 1
    17    22    20 1
    18    20    19 1
    19    20    21 1
    20    19    18 1
    21    15    16 1
    22    18    16 1
    23    16    17 2
    24     5    23 1
    25     6    24 1
    26     7    25 1
    27     8    26 1
    28    10    27 1
    29    10    28 1
    30    11    29 1
    31    11    30 1
    32    15    31 1
    33    18    32 1
@<TRIPOS>SUBSTRUCTURE
     1 W7O         1 TEMP              0 ****  ****    0 ROOT
