@<TRIPOS>MOLECULE
molecule
   32    33     1     0     0
SMALL
bcc


@<TRIPOS>ATOM
      1 OAB          0.0000     0.0000     0.0000 o          1 W7P      -0.804300
      2 CAP          1.3470     0.0000     0.0000 c          1 W7P       0.878800
      3 OAF          1.9540     0.0000     1.0510 o          1 W7P      -0.804300
      4 CAT          2.0890     0.0000    -1.2830 cc         1 W7P       0.023400
      5 NAM          1.4110    -0.1250    -2.4780 ns         1 W7P      -0.428100
      6 CAU          2.0650    -0.1260    -3.6510 c          1 W7P       0.798500
      7 OAC          1.4300    -0.2390    -4.6820 o          1 W7P      -0.726500
      8 NAN          3.4020    -0.0070    -3.7160 ns         1 W7P      -0.570500
      9 CAV          4.1330     0.1200    -2.5880 c          1 W7P       0.695700
     10 OAD          5.3430     0.2270    -2.6440 o          1 W7P      -0.653500
     11 CAS          3.4410     0.1290    -1.2940 cd         1 W7P      -0.260400
     12 CAL          4.2130     0.2680    -0.0070 c3         1 W7P      -0.009200
     13 CAK          4.6400    -1.1170     0.4840 c3         1 W7P      -0.016100
     14 CAQ          5.4120    -0.9780     1.7700 ca         1 W7P      -0.091300
     15 CAG          6.7850    -0.8140     1.7350 ca         1 W7P      -0.155000
     16 CAI          7.4990    -0.6860     2.9090 ca         1 W7P      -0.111000
     17 CAR          6.8310    -0.7230     4.1340 ca         1 W7P      -0.123600
     18 CAO          7.5880    -0.5860     5.3960 c          1 W7P       0.889200
     19 OAE          8.7940    -0.4420     5.3680 o          1 W7P      -0.857300
     20 OAA          6.9410    -0.6210     6.5770 o          1 W7P      -0.857300
     21 CAJ          5.4450    -0.8880     4.1620 ca         1 W7P      -0.111000
     22 CAH          4.7440    -1.0090     2.9810 ca         1 W7P      -0.155000
     23 H2           3.8590    -0.0120    -4.6070 hn         1 W7P       0.333500
     24 H4           5.0930     0.8770    -0.1780 hc         1 W7P       0.077200
     25 H5           3.5870     0.7390     0.7410 hc         1 W7P       0.077200
     26 H6           5.2660    -1.5880    -0.2640 hc         1 W7P       0.037200
     27 H7           3.7610    -1.7260     0.6550 hc         1 W7P       0.037200
     28 H8           7.3020    -0.7860     0.7830 ha         1 W7P       0.120500
     29 H9           8.5740    -0.5580     2.8800 ha         1 W7P       0.137000
     30 H11          4.9200    -0.9150     5.1100 ha         1 W7P       0.137000
     31 H12          3.6690    -1.1380     3.0010 ha         1 W7P       0.120500
     32 H13          0.4140    -0.2160    -2.4700 hn         1 W7P       0.372500
@<TRIPOS>BOND
     1    15    16 ar
     2    15    14 ar
     3    16    17 ar
     4    13    14 1
     5    13    12 1
     6    14    22 ar
     7    17    18 1
     8    17    21 ar
     9    18    19 1
    10    18    20 1
    11    22    21 ar
    12    12    11 1
    13    10     9 2
    14    11     9 1
    15    11     4 2
    16     9     8 1
    17     3     2 1
    18     4     2 1
    19     4     5 1
    20     8     6 1
    21     2     1 1
    22     5     6 1
    23     6     7 2
    24     8    23 1
    25    12    24 1
    26    12    25 1
    27    13    26 1
    28    13    27 1
    29    15    28 1
    30    16    29 1
    31    21    30 1
    32    22    31 1
    33     5    32 1
@<TRIPOS>SUBSTRUCTURE
     1 W7P         1 TEMP              0 ****  ****    0 ROOT
