@<TRIPOS>MOLECULE
W7Q
   51    53     1     0     0
SMALL
bcc


@<TRIPOS>ATOM
      1 OAD          0.0000     0.0000     0.0000 o          1 W7Q      -0.855300
      2 CAS          1.3470     0.0000     0.0000 c          1 W7Q       0.976800
      3 OAH          1.9530     0.0000     1.0510 o          1 W7Q      -0.855300
      4 CAX          2.0880     0.0010    -1.2840 cc         1 W7Q      -0.133600
      5 NAP          1.4110    -0.1240    -2.4780 ns         1 W7Q       0.053900
      6 CAZ          2.0640    -0.1260    -3.6520 c          1 W7Q       0.560500
      7 OAF          1.4290    -0.2380    -4.6830 o          1 W7Q      -0.759500
      8 NAQ          3.4020    -0.0070    -3.7160 ns         1 W7Q      -0.139500
      9 CBA          4.1330     0.1190    -2.5900 c          1 W7Q       0.617700
     10 OAG          5.3430     0.2270    -2.6450 o          1 W7Q      -0.697500
     11 CAY          3.4400     0.1290    -1.2940 cd         1 W7Q      -0.270400
     12 CAN          4.2130     0.2670    -0.0070 c3         1 W7Q       0.021800
     13 CAL          4.6400    -1.1180     0.4820 c3         1 W7Q       0.035900
     14 CAU          5.4120    -0.9800     1.7690 ca         1 W7Q      -0.071300
     15 CAK          4.7500    -1.0110     2.9820 ca         1 W7Q      -0.046000
     16 CAI          6.7860    -0.8270     1.7400 ca         1 W7Q      -0.091000
     17 CAJ          7.4950    -0.7010     2.9150 ca         1 W7Q      -0.116000
     18 CAW          6.8320    -0.7260     4.1430 ca         1 W7Q      -0.106400
     19 CAV          5.4560    -0.8840     4.1620 ca         1 W7Q      -0.147300
     20 CAM          4.9900    -0.8770     5.6010 c3         1 W7Q       0.040900
     21 CAO          6.2760    -0.6950     6.4230 c3         1 W7Q       0.031000
     22 NBB          7.3560    -0.6160     5.4360 n          1 W7Q       0.046000
     23 CAT          8.6620    -0.4590     5.7290 c          1 W7Q       0.691100
     24 OAE          9.4830    -0.4020     4.8360 o          1 W7Q      -0.658000
     25 OAR          9.0560    -0.3640     7.0140 os         1 W7Q      -0.421900
     26 CBC         10.4780    -0.1950     7.2550 c3         1 W7Q       0.195800
     27 CAB         10.7320    -0.1070     8.7610 c3         1 W7Q      -0.030433
     28 CAC         11.2390    -1.3910     6.6790 c3         1 W7Q      -0.030433
     29 CAA         10.9610     1.0900     6.5810 c3         1 W7Q      -0.030433
     30 H2           3.8590    -0.0120    -4.6070 hn         1 W7Q       0.187500
     31 H4           5.0910     0.8770    -0.1770 hc         1 W7Q       0.054700
     32 H5           3.5860     0.7370     0.7410 hc         1 W7Q       0.054700
     33 H6           5.2670    -1.5880    -0.2660 hc         1 W7Q       0.021700
     34 H7           3.7610    -1.7280     0.6520 hc         1 W7Q       0.021700
     35 H8           3.6750    -1.1480     3.0070 ha         1 W7Q       0.137000
     36 H9           7.3080    -0.8130     0.7910 ha         1 W7Q       0.111000
     37 H10          8.5710    -0.5830     2.8850 ha         1 W7Q       0.136000
     38 H11          4.3130    -0.0500     5.7740 hc         1 W7Q       0.026200
     39 H12          4.5170    -1.8200     5.8480 hc         1 W7Q       0.026200
     40 H13          6.2230     0.2340     6.9780 h1         1 W7Q       0.019200
     41 H14          6.4270    -1.5600     7.0580 h1         1 W7Q       0.019200
     42 H15         11.7930     0.0180     8.9420 hc         1 W7Q       0.017811
     43 H16         10.3900    -1.0170     9.2390 hc         1 W7Q       0.017811
     44 H17         10.1940     0.7390     9.1700 hc         1 W7Q       0.017811
     45 H18         10.6790    -2.2990     6.8680 hc         1 W7Q       0.017811
     46 H19         12.2110    -1.4620     7.1500 hc         1 W7Q       0.017811
     47 H20         11.3630    -1.2590     5.6110 hc         1 W7Q       0.017811
     48 H21         11.1210     0.9060     5.5250 hc         1 W7Q       0.017811
     49 H22         11.8910     1.4100     7.0370 hc         1 W7Q       0.017811
     50 H23         10.2140     1.8650     6.7030 hc         1 W7Q       0.017811
     51 H24          0.4140    -0.2140    -2.4710 hn         1 W7Q       0.212500
@<TRIPOS>BOND
     1     1     2 1   
     2     2     3 1   
     3     2     4 1   
     4     4     5 1   
     5     4    11 2   
     6     5     6 1   
     7     5    51 1   
     8     6     7 2   
     9     6     8 1   
    10     8     9 1   
    11     8    30 1   
    12     9    10 2   
    13     9    11 1   
    14    11    12 1   
    15    12    13 1   
    16    12    31 1   
    17    12    32 1   
    18    13    14 1   
    19    13    33 1   
    20    13    34 1   
    21    14    15 ar  
    22    14    16 ar  
    23    15    19 ar  
    24    15    35 1   
    25    16    17 ar  
    26    16    36 1   
    27    17    18 ar  
    28    17    37 1   
    29    18    19 ar  
    30    18    22 1   
    31    19    20 1   
    32    20    21 1   
    33    20    38 1   
    34    20    39 1   
    35    21    22 1   
    36    21    40 1   
    37    21    41 1   
    38    22    23 1   
    39    23    24 2   
    40    23    25 1   
    41    25    26 1   
    42    26    27 1   
    43    26    28 1   
    44    26    29 1   
    45    27    42 1   
    46    27    43 1   
    47    27    44 1   
    48    28    45 1   
    49    28    46 1   
    50    28    47 1   
    51    29    48 1   
    52    29    49 1   
    53    29    50 1   
@<TRIPOS>SUBSTRUCTURE
     1 W7Q         1 TEMP              0 ****  ****    0 ROOT
