@<TRIPOS>MOLECULE
molecule
   51    53     1     0     0
SMALL
bcc


@<TRIPOS>ATOM
      1 OAD          0.0000     0.0000     0.0000 o          1 W7Q      -0.807300
      2 CAS          1.3470     0.0000     0.0000 c          1 W7Q       0.880800
      3 OAH          1.9530     0.0000     1.0510 o          1 W7Q      -0.807300
      4 CAX          2.0880     0.0010    -1.2840 cc         1 W7Q       0.040400
      5 NAP          1.4110    -0.1240    -2.4780 ns         1 W7Q      -0.428100
      6 CAZ          2.0640    -0.1260    -3.6520 c          1 W7Q       0.799500
      7 OAF          1.4290    -0.2380    -4.6830 o          1 W7Q      -0.705500
      8 NAQ          3.4020    -0.0070    -3.7160 ns         1 W7Q      -0.567500
      9 CBA          4.1330     0.1190    -2.5900 c          1 W7Q       0.700700
     10 OAG          5.3430     0.2270    -2.6450 o          1 W7Q      -0.658500
     11 CAY          3.4400     0.1290    -1.2940 cd         1 W7Q      -0.280400
     12 CAN          4.2130     0.2670    -0.0070 c3         1 W7Q      -0.005200
     13 CAL          4.6400    -1.1180     0.4820 c3         1 W7Q      -0.022100
     14 CAU          5.4120    -0.9800     1.7690 ca         1 W7Q      -0.076300
     15 CAK          4.7500    -1.0110     2.9820 ca         1 W7Q      -0.075000
     16 CAI          6.7860    -0.8270     1.7400 ca         1 W7Q      -0.113000
     17 CAJ          7.4950    -0.7010     2.9150 ca         1 W7Q      -0.146000
     18 CAW          6.8320    -0.7260     4.1430 ca         1 W7Q       0.045600
     19 CAV          5.4560    -0.8840     4.1620 ca         1 W7Q      -0.139300
     20 CAM          4.9900    -0.8770     5.6010 c3         1 W7Q      -0.041100
     21 CAO          6.2760    -0.6950     6.4230 c3         1 W7Q       0.102000
     22 NBB          7.3560    -0.6160     5.4360 n          1 W7Q      -0.358000
     23 CAT          8.6620    -0.4590     5.7290 c          1 W7Q       0.765100
     24 OAE          9.4830    -0.4020     4.8360 o          1 W7Q      -0.609000
     25 OAR          9.0560    -0.3640     7.0140 os         1 W7Q      -0.436900
     26 CBC         10.4780    -0.1950     7.2550 c3         1 W7Q       0.178800
     27 CAB         10.7320    -0.1070     8.7610 c3         1 W7Q      -0.106100
     28 CAC         11.2390    -1.3910     6.6790 c3         1 W7Q      -0.106100
     29 CAA         10.9610     1.0900     6.5810 c3         1 W7Q      -0.106100
     30 H2           3.8590    -0.0120    -4.6070 hn         1 W7Q       0.341500
     31 H4           5.0910     0.8770    -0.1770 hc         1 W7Q       0.075200
     32 H5           3.5860     0.7370     0.7410 hc         1 W7Q       0.075200
     33 H6           5.2670    -1.5880    -0.2660 hc         1 W7Q       0.050700
     34 H7           3.7610    -1.7280     0.6520 hc         1 W7Q       0.050700
     35 H8           3.6750    -1.1480     3.0070 ha         1 W7Q       0.164000
     36 H9           7.3080    -0.8130     0.7910 ha         1 W7Q       0.138000
     37 H10          8.5710    -0.5830     2.8850 ha         1 W7Q       0.155000
     38 H11          4.3130    -0.0500     5.7740 hc         1 W7Q       0.059700
     39 H12          4.5170    -1.8200     5.8480 hc         1 W7Q       0.059700
     40 H13          6.2230     0.2340     6.9780 h1         1 W7Q       0.049200
     41 H14          6.4270    -1.5600     7.0580 h1         1 W7Q       0.049200
     42 H15         11.7930     0.0180     8.9420 hc         1 W7Q       0.048367
     43 H16         10.3900    -1.0170     9.2390 hc         1 W7Q       0.048367
     44 H17         10.1940     0.7390     9.1700 hc         1 W7Q       0.048367
     45 H18         10.6790    -2.2990     6.8680 hc         1 W7Q       0.048367
     46 H19         12.2110    -1.4620     7.1500 hc         1 W7Q       0.048367
     47 H20         11.3630    -1.2590     5.6110 hc         1 W7Q       0.048367
     48 H21         11.1210     0.9060     5.5250 hc         1 W7Q       0.048367
     49 H22         11.8910     1.4100     7.0370 hc         1 W7Q       0.048367
     50 H23         10.2140     1.8650     6.7030 hc         1 W7Q       0.048367
     51 H24          0.4140    -0.2140    -2.4710 hn         1 W7Q       0.376500
@<TRIPOS>BOND
     1    27    26 1
     2    28    26 1
     3    26    25 1
     4    26    29 1
     5    25    23 1
     6    17    16 ar
     7    17    18 ar
     8    16    14 ar
     9    23    24 2
    10    23    22 1
    11    18    22 1
    12    18    19 ar
    13    22    21 1
    14    14    13 1
    15    14    15 ar
    16    13    12 1
    17    19    15 ar
    18    19    20 1
    19    21    20 1
    20    12    11 1
    21    10     9 2
    22    11     9 1
    23    11     4 2
    24     9     8 1
    25     3     2 1
    26     4     2 1
    27     4     5 1
    28     2     1 1
    29     8     6 1
    30     5     6 1
    31     6     7 2
    32     8    30 1
    33    12    31 1
    34    12    32 1
    35    13    33 1
    36    13    34 1
    37    15    35 1
    38    16    36 1
    39    17    37 1
    40    20    38 1
    41    20    39 1
    42    21    40 1
    43    21    41 1
    44    27    42 1
    45    27    43 1
    46    27    44 1
    47    28    45 1
    48    28    46 1
    49    28    47 1
    50    29    48 1
    51    29    49 1
    52    29    50 1
    53     5    51 1
@<TRIPOS>SUBSTRUCTURE
     1 W7Q         1 TEMP              0 ****  ****    0 ROOT
