@<TRIPOS>MOLECULE
W80
   49    51     1     0     0
SMALL
bcc


@<TRIPOS>ATOM
      1 N02          0.0000     0.0000     0.0000 nv         1 W80      -0.534500
      2 C02          1.3900     0.0000     0.0000 ca         1 W80       0.516200
      3 C03          2.0790     0.0000     1.2090 ca         1 W80      -0.312300
      4 C04          3.4620     0.0010     1.1950 ca         1 W80      -0.003300
      5 C05          4.1120     0.0010    -0.0310 ca         1 W80      -0.290300
      6 C07          4.2450     0.0010     2.4830 c3         1 W80       0.060200
      7 N01          2.0470    -0.0050    -1.1490 nb         1 W80      -0.656000
      8 C06          3.3660     0.0010    -1.1920 ca         1 W80       0.428600
      9 C08          4.0660     0.0020    -2.5270 c3         1 W80      -0.068700
     10 C09          3.5710    -1.1800    -3.3630 c3         1 W80       0.037900
     11 C13          4.2710    -1.1790    -4.6980 ca         1 W80      -0.204600
     12 C12          3.7330    -0.4890    -5.7700 ca         1 W80       0.403200
     13 N11          4.3350    -0.4800    -6.9430 nb         1 W80      -0.577000
     14 C16          5.4670    -1.1210    -7.1490 ca         1 W80       0.397200
     15 C14          5.4640    -1.8630    -4.8620 ca         1 W80      -0.071000
     16 C15          6.0740    -1.8390    -6.1200 cp         1 W80      -0.146300
     17 C21          7.3490    -2.5610    -6.3540 cp         1 W80      -0.027000
     18 C26          7.9440    -3.2800    -5.3200 ca         1 W80      -0.099500
     19 C22          7.9520    -2.5260    -7.6090 ca         1 W80      -0.099500
     20 C23          9.1380    -3.2000    -7.8210 ca         1 W80      -0.083500
     21 C24          9.7270    -3.9090    -6.7900 ca         1 W80      -0.094300
     22 C25          9.1300    -3.9500    -5.5430 ca         1 W80      -0.083500
     23 C27         11.0210    -4.6430    -7.0280 c3         1 W80       0.200100
     24 N28         12.1510    -3.7510    -6.7330 n7         1 W80      -0.582200
     25 C29         13.4330    -4.4340    -6.9540 c3         1 W80       0.178100
     26 H1          -0.5000     0.0050    -0.8670 hn         1 W80       0.270300
     27 H2          -0.5000     0.0180     0.8670 hn         1 W80       0.270300
     28 H3           1.5390    -0.0000     2.1490 ha         1 W80       0.119000
     29 H4           5.1940     0.0040    -0.0760 ha         1 W80       0.120000
     30 H5           5.0770     0.6900     2.4000 hc         1 W80       0.010033
     31 H6           3.6000     0.3100     3.2970 hc         1 W80       0.010033
     32 H7           4.6200    -0.9960     2.6780 hc         1 W80       0.010033
     33 H8           3.8510     0.9280    -3.0470 hc         1 W80       0.024700
     34 H9           5.1350    -0.0860    -2.3740 hc         1 W80       0.024700
     35 H10          2.5030    -1.0910    -3.5160 hc         1 W80       0.028700
     36 H11          3.7870    -2.1050    -2.8430 hc         1 W80       0.028700
     37 H12          2.8030     0.0510    -5.6430 h4         1 W80      -0.014900
     38 H13          5.9300    -1.0910    -8.1280 h4         1 W80      -0.012900
     39 H14          5.9090    -2.4110    -4.0400 ha         1 W80       0.119000
     40 H15          7.4770    -3.3130    -4.3430 ha         1 W80       0.111500
     41 H16          7.4910    -1.9720    -8.4170 ha         1 W80       0.111500
     42 H17          9.6090    -3.1720    -8.7960 ha         1 W80       0.106500
     43 H18          9.5950    -4.5090    -4.7390 ha         1 W80       0.106500
     44 H19         11.0680    -5.5110    -6.3810 h1         1 W80       0.009200
     45 H20         11.0720    -4.9610    -8.0620 h1         1 W80       0.009200
     46 H21         12.0950    -3.4450    -5.7820 hn         1 W80       0.252800
     47 H23         13.5000    -4.7520    -7.9880 h1         1 W80      -0.001633
     48 H24         14.2470    -3.7550    -6.7320 h1         1 W80      -0.001633
     49 H25         13.4980    -5.2990    -6.3050 h1         1 W80      -0.001633
@<TRIPOS>BOND
     1     1     2 1   
     2     1    26 1   
     3     1    27 1   
     4     2     3 ar  
     5     2     7 ar  
     6     3     4 ar  
     7     3    28 1   
     8     4     5 ar  
     9     4     6 1   
    10     5     8 ar  
    11     5    29 1   
    12     6    30 1   
    13     6    31 1   
    14     6    32 1   
    15     7     8 ar  
    16     8     9 1   
    17     9    10 1   
    18     9    33 1   
    19     9    34 1   
    20    10    11 1   
    21    10    35 1   
    22    10    36 1   
    23    11    12 ar  
    24    11    15 ar  
    25    12    13 ar  
    26    12    37 1   
    27    13    14 ar  
    28    14    16 ar  
    29    14    38 1   
    30    15    16 ar  
    31    15    39 1   
    32    16    17 1   
    33    17    18 ar  
    34    17    19 ar  
    35    18    22 ar  
    36    18    40 1   
    37    19    20 ar  
    38    19    41 1   
    39    20    21 ar  
    40    20    42 1   
    41    21    22 ar  
    42    21    23 1   
    43    22    43 1   
    44    23    24 1   
    45    23    44 1   
    46    23    45 1   
    47    24    25 1   
    48    24    46 1   
    49    25    47 1   
    50    25    48 1   
    51    25    49 1   
@<TRIPOS>SUBSTRUCTURE
     1 W80         1 TEMP              0 ****  ****    0 ROOT
