@<TRIPOS>MOLECULE
W81
   26    26     1     0     0
SMALL
bcc


@<TRIPOS>ATOM
      1 C10          0.0000     0.0000     0.0000 c3         1 W81       0.199400
      2 O01          6.2310    -0.1720     0.5100 o          1 W81      -0.849300
      3 O03          5.4100     1.7260     0.0320 o          1 W81      -0.849300
      4 C04          4.3230    -0.1280    -0.7510 ce         1 W81      -0.200400
      5 C05          4.2770    -1.4810    -0.8330 cf         1 W81      -0.074000
      6 C06          3.1900    -2.1220    -1.5710 cf         1 W81      -0.043000
      7 C07          2.0700    -1.4430    -1.8260 c2         1 W81      -0.276200
      8 C08          1.9170    -0.0220    -1.3540 c3         1 W81       0.223300
      9 O09          1.4290     0.0000     0.0000 os         1 W81      -0.349600
     10 C11         -0.5100     0.0000     1.4420 c3         1 W81       0.001900
     11 C12          3.2570     0.7010    -1.4180 c3         1 W81      -0.023300
     12 N13          3.6150     0.9160    -2.8260 nz         1 W81       0.074400
     13 H08          1.2120     0.4930    -1.9960 h1         1 W81      -0.002300
     14 H12          3.1750     1.6560    -0.9140 hx         1 W81       0.129700
     15 H05          4.9660    -2.0820    -0.2520 ha         1 W81       0.163000
     16 H06          3.2630    -3.1690    -1.8410 ha         1 W81       0.110000
     17 H07          1.2670    -1.9170    -2.3770 ha         1 W81       0.117000
     18 H10         -0.3610    -0.8930    -0.4960 h1         1 W81      -0.011300
     19 H10A        -0.3610     0.8760    -0.5250 h1         1 W81      -0.011300
     20 H11         -1.5930     0.0050     1.4420 hc         1 W81       0.015033
     21 H11A        -0.1530    -0.8870     1.9520 hc         1 W81       0.015033
     22 H11B        -0.1450     0.8820     1.9550 hc         1 W81       0.015033
     23 HN13         4.5380     1.2990    -2.8810 hn         1 W81       0.216467
     24 HN1A         2.9650     1.5520    -3.2430 hn         1 W81       0.216467
     25 HN1B         3.5880     0.0430    -3.3150 hn         1 W81       0.216467
     26 C02          5.3680     0.5040    -0.0370 c          1 W81       0.979800
@<TRIPOS>BOND
     1     1     9 1   
     2     1    10 1   
     3     1    18 1   
     4     1    19 1   
     5     2    26 1   
     6     3    26 1   
     7     4     5 2   
     8     4    11 1   
     9     4    26 1   
    10     5     6 1   
    11     5    15 1   
    12     6     7 2   
    13     6    16 1   
    14     7     8 1   
    15     7    17 1   
    16     8     9 1   
    17     8    11 1   
    18     8    13 1   
    19    10    20 1   
    20    10    21 1   
    21    10    22 1   
    22    11    12 1   
    23    11    14 1   
    24    12    23 1   
    25    12    24 1   
    26    12    25 1   
@<TRIPOS>SUBSTRUCTURE
     1 W81         1 TEMP              0 ****  ****    0 ROOT
