@<TRIPOS>MOLECULE
molecule
   50    52     1     0     0
SMALL
bcc


@<TRIPOS>ATOM
      1 C02          0.0000     0.0000     0.0000 ca         1 W82       0.712200
      2 C04          2.0650     0.0000     1.2090 ca         1 W82      -0.003300
      3 C05          1.3210    -0.0010     2.3810 ca         1 W82      -0.312300
      4 C06         -0.0580    -0.0050     2.3080 ca         1 W82       0.477600
      5 C07          3.5710     0.0070     1.2520 c3         1 W82      -0.050800
      6 C08         -0.8700    -0.0060     3.5760 c3         1 W82      -0.120700
      7 C11         -2.6590     1.1720     4.8270 ca         1 W82      -0.056300
      8 C12         -3.8580     0.4840     4.8780 ca         1 W82      -0.165000
      9 C03          1.3910     0.0000     0.0000 ca         1 W82      -0.328300
     10 C09         -1.8470     1.1720     3.5580 c3         1 W82      -0.031100
     11 C13         -4.6130     0.4850     6.0410 ca         1 W82       0.136900
     12 C14         -4.1700     1.1730     7.1540 ca         1 W82      -0.165000
     13 C15         -2.9620     1.8660     7.1060 cp         1 W82      -0.005000
     14 C16         -2.2080     1.8620     5.9340 ca         1 W82      -0.136000
     15 C21         -2.4800     2.6070     8.2980 cp         1 W82      -0.040000
     16 C22         -1.2760     3.3050     8.2470 ca         1 W82      -0.115000
     17 C23         -0.8330     3.9930     9.3590 ca         1 W82      -0.128000
     18 C24         -1.5820     3.9890    10.5210 ca         1 W82      -0.122000
     19 C25         -2.7790     3.2980    10.5770 ca         1 W82      -0.084300
     20 C26         -3.2340     2.6110     9.4700 ca         1 W82      -0.092000
     21 C27         -3.5890     3.2970    11.8480 c3         1 W82       0.202100
     22 C29         -5.3350     4.4610    13.0550 c3         1 W82       0.146100
     23 F13         -5.7830    -0.1890     6.0850 f          1 W82      -0.141900
     24 N01         -0.6730    -0.0000     1.1410 nb         1 W82      -0.773000
     25 N02         -0.6890     0.0070    -1.2070 nv         1 W82      -1.013500
     26 N28         -4.5270     4.4280    11.8300 n7         1 W82      -0.814200
     27 H1           1.8130    -0.1470     3.3350 ha         1 W82       0.136000
     28 H2           3.9260    -0.9510     1.6140 hc         1 W82       0.047367
     29 H3           3.9600     0.1830     0.2560 hc         1 W82       0.047367
     30 H4           3.9090     0.7920     1.9160 hc         1 W82       0.047367
     31 H5          -0.2080     0.0880     4.4290 hc         1 W82       0.058700
     32 H6          -1.4240    -0.9340     3.6500 hc         1 W82       0.058700
     33 H7          -4.2080    -0.0560     4.0070 ha         1 W82       0.148000
     34 H8           1.9400     0.0000    -0.9340 ha         1 W82       0.134000
     35 H9          -1.2930     2.0990     3.4840 hc         1 W82       0.062700
     36 H10         -2.5090     1.0780     2.7050 hc         1 W82       0.062700
     37 H11         -4.7600     1.1730     8.0620 ha         1 W82       0.149000
     38 H12         -1.2680     2.4000     5.8920 ha         1 W82       0.138000
     39 H13         -0.6880     3.3090     7.3370 ha         1 W82       0.133000
     40 H14          0.1030     4.5360     9.3220 ha         1 W82       0.131000
     41 H15         -1.2300     4.5280    11.3920 ha         1 W82       0.127000
     42 H16         -4.1710     2.0700     9.5140 ha         1 W82       0.141000
     43 H17         -2.9260     3.3910    12.6990 h1         1 W82       0.038700
     44 H18         -4.1430     2.3700    11.9220 h1         1 W82       0.038700
     45 H19         -5.8980     3.5390    13.1410 h1         1 W82       0.031033
     46 H20         -4.6850     4.5680    13.9150 h1         1 W82       0.031033
     47 H21         -6.0200     5.2990    13.0140 h1         1 W82       0.031033
     48 H22         -1.6900    -0.0080    -1.2110 hn         1 W82       0.438800
     49 H23         -0.1850     0.0120    -2.0710 hn         1 W82       0.438800
     50 H24         -4.0150     5.2840    11.7450 hn         1 W82       0.354800
@<TRIPOS>BOND
     1     5     2 1
     2     2     3 ar
     3     2     9 ar
     4     3     4 ar
     5     9     1 ar
     6     4     6 1
     7     4    24 ar
     8    23    11 1
     9     1    24 ar
    10     1    25 1
    11     6    10 1
    12    16    17 ar
    13    16    15 ar
    14    11    12 ar
    15    11     8 ar
    16    12    13 ar
    17    17    18 ar
    18     8     7 ar
    19    13    15 1
    20    13    14 ar
    21     7    14 ar
    22     7    10 1
    23    15    20 ar
    24    18    19 ar
    25    20    19 ar
    26    19    21 1
    27    21    26 1
    28    26    22 1
    29     3    27 1
    30     5    28 1
    31     5    29 1
    32     5    30 1
    33     6    31 1
    34     6    32 1
    35     8    33 1
    36     9    34 1
    37    10    35 1
    38    10    36 1
    39    12    37 1
    40    14    38 1
    41    16    39 1
    42    17    40 1
    43    18    41 1
    44    20    42 1
    45    21    43 1
    46    21    44 1
    47    22    45 1
    48    22    46 1
    49    22    47 1
    50    25    48 1
    51    25    49 1
    52    26    50 1
@<TRIPOS>SUBSTRUCTURE
     1 W82         1 TEMP              0 ****  ****    0 ROOT
