@<TRIPOS>MOLECULE
W82
   50    52     1     0     0
SMALL
bcc


@<TRIPOS>ATOM
      1 C02          0.0000     0.0000     0.0000 ca         1 W82       0.517200
      2 C04          2.0650     0.0000     1.2090 ca         1 W82      -0.002300
      3 C05          1.3210    -0.0010     2.3810 ca         1 W82      -0.292300
      4 C06         -0.0580    -0.0050     2.3080 ca         1 W82       0.429600
      5 C07          3.5710     0.0070     1.2520 c3         1 W82       0.060200
      6 C08         -0.8700    -0.0060     3.5760 c3         1 W82      -0.068700
      7 C11         -2.6590     1.1720     4.8270 ca         1 W82      -0.058300
      8 C12         -3.8580     0.4840     4.8780 ca         1 W82      -0.133000
      9 C03          1.3910     0.0000     0.0000 ca         1 W82      -0.313300
     10 C09         -1.8470     1.1720     3.5580 c3         1 W82       0.029900
     11 C13         -4.6130     0.4850     6.0410 ca         1 W82       0.109900
     12 C14         -4.1700     1.1730     7.1540 ca         1 W82      -0.140000
     13 C15         -2.9620     1.8660     7.1060 cp         1 W82       0.001000
     14 C16         -2.2080     1.8620     5.9340 ca         1 W82      -0.115000
     15 C21         -2.4800     2.6070     8.2980 cp         1 W82      -0.037000
     16 C22         -1.2760     3.3050     8.2470 ca         1 W82      -0.096000
     17 C23         -0.8330     3.9930     9.3590 ca         1 W82      -0.099000
     18 C24         -1.5820     3.9890    10.5210 ca         1 W82      -0.095000
     19 C25         -2.7790     3.2980    10.5770 ca         1 W82      -0.092300
     20 C26         -3.2340     2.6110     9.4700 ca         1 W82      -0.072000
     21 C27         -3.5890     3.2970    11.8480 c3         1 W82       0.200100
     22 C29         -5.3350     4.4610    13.0550 c3         1 W82       0.178100
     23 F13         -5.7830    -0.1890     6.0850 f          1 W82      -0.129900
     24 N01         -0.6730    -0.0000     1.1410 nb         1 W82      -0.656000
     25 N02         -0.6890     0.0070    -1.2070 nv         1 W82      -0.533500
     26 N28         -4.5270     4.4280    11.8300 n7         1 W82      -0.581200
     27 H1           1.8130    -0.1470     3.3350 ha         1 W82       0.120000
     28 H2           3.9260    -0.9510     1.6140 hc         1 W82       0.010033
     29 H3           3.9600     0.1830     0.2560 hc         1 W82       0.010033
     30 H4           3.9090     0.7920     1.9160 hc         1 W82       0.010033
     31 H5          -0.2080     0.0880     4.4290 hc         1 W82       0.024700
     32 H6          -1.4240    -0.9340     3.6500 hc         1 W82       0.024700
     33 H7          -4.2080    -0.0560     4.0070 ha         1 W82       0.124000
     34 H8           1.9400     0.0000    -0.9340 ha         1 W82       0.119000
     35 H9          -1.2930     2.0990     3.4840 hc         1 W82       0.029700
     36 H10         -2.5090     1.0780     2.7050 hc         1 W82       0.029700
     37 H11         -4.7600     1.1730     8.0620 ha         1 W82       0.128000
     38 H12         -1.2680     2.4000     5.8920 ha         1 W82       0.119000
     39 H13         -0.6880     3.3090     7.3370 ha         1 W82       0.111000
     40 H14          0.1030     4.5360     9.3220 ha         1 W82       0.103000
     41 H15         -1.2300     4.5280    11.3920 ha         1 W82       0.102000
     42 H16         -4.1710     2.0700     9.5140 ha         1 W82       0.119000
     43 H17         -2.9260     3.3910    12.6990 h1         1 W82       0.009700
     44 H18         -4.1430     2.3700    11.9220 h1         1 W82       0.009700
     45 H19         -5.8980     3.5390    13.1410 h1         1 W82      -0.001967
     46 H20         -4.6850     4.5680    13.9150 h1         1 W82      -0.001967
     47 H21         -6.0200     5.2990    13.0140 h1         1 W82      -0.001967
     48 H22         -1.6900    -0.0080    -1.2110 hn         1 W82       0.269800
     49 H23         -0.1850     0.0120    -2.0710 hn         1 W82       0.269800
     50 H24         -4.0150     5.2840    11.7450 hn         1 W82       0.253800
@<TRIPOS>BOND
     1     1     9 ar  
     2     1    24 ar  
     3     1    25 1   
     4     2     3 ar  
     5     2     5 1   
     6     2     9 ar  
     7     3     4 ar  
     8     3    27 1   
     9     4     6 1   
    10     4    24 ar  
    11     5    28 1   
    12     5    29 1   
    13     5    30 1   
    14     6    10 1   
    15     6    31 1   
    16     6    32 1   
    17     7     8 ar  
    18     7    10 1   
    19     7    14 ar  
    20     8    11 ar  
    21     8    33 1   
    22     9    34 1   
    23    10    35 1   
    24    10    36 1   
    25    11    12 ar  
    26    11    23 1   
    27    12    13 ar  
    28    12    37 1   
    29    13    14 ar  
    30    13    15 1   
    31    14    38 1   
    32    15    16 ar  
    33    15    20 ar  
    34    16    17 ar  
    35    16    39 1   
    36    17    18 ar  
    37    17    40 1   
    38    18    19 ar  
    39    18    41 1   
    40    19    20 ar  
    41    19    21 1   
    42    20    42 1   
    43    21    26 1   
    44    21    43 1   
    45    21    44 1   
    46    22    26 1   
    47    22    45 1   
    48    22    46 1   
    49    22    47 1   
    50    25    48 1   
    51    25    49 1   
    52    26    50 1   
@<TRIPOS>SUBSTRUCTURE
     1 W82         1 TEMP              0 ****  ****    0 ROOT
