@<TRIPOS>MOLECULE
W83
   44    46     1     0     0
SMALL
bcc


@<TRIPOS>ATOM
      1 OAB          0.0000     0.0000     0.0000 o          1 W83      -0.854800
      2 CAS          1.3470     0.0000     0.0000 c          1 W83       0.975800
      3 OAE          1.9540     0.0000     1.0510 o          1 W83      -0.854800
      4 CAV          2.0870    -0.0000    -1.2840 cc         1 W83      -0.131600
      5 NAO          1.4100    -0.1250    -2.4790 ns         1 W83       0.053900
      6 CAX          2.0630    -0.1270    -3.6520 c          1 W83       0.560500
      7 OAC          1.4280    -0.2390    -4.6820 o          1 W83      -0.759500
      8 NAP          3.4010    -0.0080    -3.7170 ns         1 W83      -0.139500
      9 CAY          4.1310     0.1190    -2.5900 c          1 W83       0.617700
     10 OAD          5.3420     0.2270    -2.6460 o          1 W83      -0.699500
     11 CAW          3.4400     0.1290    -1.2960 cd         1 W83      -0.271400
     12 CAM          4.2130     0.2670    -0.0090 c3         1 W83       0.022800
     13 CAL          4.6400    -1.1170     0.4810 c3         1 W83       0.028900
     14 CAT          5.4130    -0.9780     1.7680 ca         1 W83      -0.041300
     15 CAJ          6.7630    -0.8170     1.7250 ca         1 W83      -0.120000
     16 CBA          7.4860    -0.6860     2.9230 ca         1 W83       0.002000
     17 CAK          8.8820    -0.5190     2.9170 ca         1 W83      -0.139000
     18 CAF          4.7330    -1.0100     2.9830 ca         1 W83      -0.079000
     19 CAH          5.4000    -0.8860     4.1630 ca         1 W83      -0.103000
     20 CAZ          6.7950    -0.7250     4.1600 ca         1 W83      -0.074000
     21 CAI          7.5180    -0.5940     5.3590 ca         1 W83      -0.047000
     22 CAG          8.8680    -0.4340     5.3200 ca         1 W83      -0.204000
     23 CAU          9.5520    -0.3970     4.1000 ca         1 W83       0.130100
     24 OAR         10.9010    -0.2360     4.0940 os         1 W83      -0.336900
     25 CAN         11.5460    -0.1130     5.3630 c3         1 W83       0.415200
     26 OAQ         11.6070    -1.3930     5.9920 os         1 W83      -0.433600
     27 CAA         12.5910    -2.2680     5.4370 c3         1 W83       0.252700
     28 H2           0.4130    -0.2140    -2.4710 hn         1 W83       0.212500
     29 H3           3.8580    -0.0140    -4.6070 hn         1 W83       0.187500
     30 H4           5.0920     0.8770    -0.1800 hc         1 W83       0.054700
     31 H5           3.5870     0.7380     0.7390 hc         1 W83       0.054700
     32 H6           5.2660    -1.5870    -0.2670 hc         1 W83       0.022700
     33 H7           3.7610    -1.7260     0.6520 hc         1 W83       0.022700
     34 H8           7.2880    -0.8990     0.7810 ha         1 W83       0.115000
     35 H9           9.4230    -0.4890     1.9790 ha         1 W83       0.116000
     36 H10          3.6570    -1.1380     2.9900 ha         1 W83       0.137000
     37 H11          4.8580    -0.9130     5.1010 ha         1 W83       0.100000
     38 H12          7.0010    -0.6220     6.3110 ha         1 W83       0.098000
     39 H13          9.4210    -0.3350     6.2460 ha         1 W83       0.117000
     40 H14         12.5500     0.2690     5.2230 h2         1 W83       0.012200
     41 H15         10.9840     0.5700     5.9890 h2         1 W83       0.012200
     42 H16         12.2240    -3.2870     5.4630 h1         1 W83      -0.010967
     43 H17         12.7900    -1.9820     4.4110 h1         1 W83      -0.010967
     44 H18         13.5040    -2.1980     6.0150 h1         1 W83      -0.010967
@<TRIPOS>BOND
     1     1     2 1   
     2     2     3 1   
     3     2     4 1   
     4     4     5 1   
     5     4    11 2   
     6     5     6 1   
     7     5    28 1   
     8     6     7 2   
     9     6     8 1   
    10     8     9 1   
    11     8    29 1   
    12     9    10 2   
    13     9    11 1   
    14    11    12 1   
    15    12    13 1   
    16    12    30 1   
    17    12    31 1   
    18    13    14 1   
    19    13    32 1   
    20    13    33 1   
    21    14    15 ar  
    22    14    18 ar  
    23    15    16 ar  
    24    15    34 1   
    25    16    17 ar  
    26    16    20 ar  
    27    17    23 ar  
    28    17    35 1   
    29    18    19 ar  
    30    18    36 1   
    31    19    20 ar  
    32    19    37 1   
    33    20    21 ar  
    34    21    22 ar  
    35    21    38 1   
    36    22    23 ar  
    37    22    39 1   
    38    23    24 1   
    39    24    25 1   
    40    25    26 1   
    41    25    40 1   
    42    25    41 1   
    43    26    27 1   
    44    27    42 1   
    45    27    43 1   
    46    27    44 1   
@<TRIPOS>SUBSTRUCTURE
     1 W83         1 TEMP              0 ****  ****    0 ROOT
