@<TRIPOS>MOLECULE
W84
   54    56     1     0     0
SMALL
bcc


@<TRIPOS>ATOM
      1 O1          0.1330    0.6770    0.0100 os        1 W84     -0.122100
      2 N2          1.4280    0.7620   -0.2130 nc        1 W84     -0.362300
      3 C3          2.0960    0.4450    0.9160 cd        1 W84      0.319600
      4 C31         3.5580    0.4150    1.0980 c3        1 W84     -0.132400
      5 C4          1.1220    0.1270    1.9630 cd        1 W84     -0.364600
      6 C5         -0.1050    0.2860    1.3530 cc        1 W84      0.265000
      7 C1C        -1.5060    0.1330    1.7640 c3        1 W84     -0.117700
      8 C2C        -2.2070    1.4740    1.8890 c3        1 W84     -0.078400
      9 C3C        -3.6590    1.2870    2.2730 c3        1 W84     -0.079400
     10 C4C        -4.3610    2.6210    2.4110 c3        1 W84     -0.078400
     11 C5C        -5.8150    2.4370    2.7900 c3        1 W84     -0.078400
     12 C6C        -6.5100    3.7730    2.9340 c3        1 W84     -0.086400
     13 C7C        -7.9660    3.5680    3.3130 c3        1 W84      0.128400
     14 O1B        -8.5240    4.8830    3.4360 os        1 W84     -0.327900
     15 C1B        -9.8570    4.9460    3.7790 ca        1 W84      0.153100
     16 C2B       -10.3740    6.2530    3.8900 ca        1 W84     -0.198000
     17 C3B       -11.7060    6.4310    4.2310 ca        1 W84     -0.049500
     18 C4B       -12.5340    5.3200    4.4650 ca        1 W84     -0.168900
     19 C5B       -12.0120    4.0260    4.3520 ca        1 W84     -0.049500
     20 C6B       -10.6750    3.8340    4.0100 ca        1 W84     -0.198000
     21 C2A       -13.9350    5.5160    4.8250 ce        1 W84      0.642200
     22 N3A       -14.8670    4.6310    5.0700 n2        1 W84     -0.634900
     23 C4A       -16.1170    5.3410    5.3690 c3        1 W84      0.089500
     24 CM1       -16.7160    5.0050    6.7230 c3        1 W84     -0.086100
     25 C5A       -15.7510    6.8540    5.2670 c3        1 W84      0.089400
     26 O1A       -14.3490    6.8650    4.9130 os        1 W84     -0.458400
     27 H311        3.8480    1.1330    1.9060 hc        1 W84      0.057367
     28 H312        3.8740   -0.6140    1.4050 hc        1 W84      0.057367
     29 H313        4.1030    0.6910    0.1620 hc        1 W84      0.057367
     30 H4          1.3530   -0.1640    2.9810 ha        1 W84      0.173000
     31 H1C1       -2.0440   -0.5010    1.0070 hc        1 W84      0.066700
     32 H1C2       -1.5350   -0.4080    2.7480 hc        1 W84      0.066700
     33 H2C1       -2.1360    2.0220    0.9130 hc        1 W84      0.053700
     34 H2C2       -1.6890    2.1000    2.6620 hc        1 W84      0.053700
     35 H3C1       -4.1780    0.6680    1.4940 hc        1 W84      0.041200
     36 H3C2       -3.7250    0.7240    3.2410 hc        1 W84      0.041200
     37 H4C1       -3.8440    3.2400    3.1920 hc        1 W84      0.045200
     38 H4C2       -4.2920    3.1840    1.4430 hc        1 W84      0.045200
     39 H5C1       -5.8830    1.8690    3.7550 hc        1 W84      0.041700
     40 H5C2       -6.3330    1.8230    2.0060 hc        1 W84      0.041700
     41 H6C1       -6.4520    4.3470    1.9730 hc        1 W84      0.059200
     42 H6C2       -6.0040    4.3910    3.7210 hc        1 W84      0.059200
     43 H7C1       -8.5160    3.0000    2.5180 h1        1 W84      0.041200
     44 H7C2       -8.0580    3.0300    4.2930 h1        1 W84      0.041200
     45 H2B        -9.7140    7.1130    3.7040 ha        1 W84      0.147500
     46 H3B       -12.1220    7.4470    4.3210 ha        1 W84      0.156500
     47 H5B       -12.6560    3.1500    4.5340 ha        1 W84      0.156500
     48 H6B       -10.2830    2.8110    3.9250 ha        1 W84      0.147500
     49 H4A       -16.8610    5.0710    4.5670 h1        1 W84      0.073700
     50 HM11      -17.6640    5.5810    6.8540 hc        1 W84      0.044367
     51 HM12      -16.9440    3.9150    6.7880 hc        1 W84      0.044367
     52 HM13      -16.0170    5.2720    7.5510 hc        1 W84      0.044367
     53 H5A1      -16.3000    7.3800    4.4510 h1        1 W84      0.062700
     54 H5A2      -15.8510    7.3950    6.2380 h1        1 W84      0.062700
@<TRIPOS>BOND
     1    1    2 1
     2    1    6 1
     3    2    3 2
     4    3    4 1
     5    3    5 1
     6    4   27 1
     7    4   28 1
     8    4   29 1
     9    5    6 2
    10    5   30 1
    11    6    7 1
    12    7    8 1
    13    7   31 1
    14    7   32 1
    15    8    9 1
    16    8   33 1
    17    8   34 1
    18    9   10 1
    19    9   35 1
    20    9   36 1
    21   10   11 1
    22   10   37 1
    23   10   38 1
    24   11   12 1
    25   11   39 1
    26   11   40 1
    27   12   13 1
    28   12   41 1
    29   12   42 1
    30   13   14 1
    31   13   43 1
    32   13   44 1
    33   14   15 1
    34   15   16 ar
    35   15   20 ar
    36   16   17 ar
    37   16   45 1
    38   17   18 ar
    39   17   46 1
    40   18   19 ar
    41   18   21 1
    42   19   20 ar
    43   19   47 1
    44   20   48 1
    45   21   22 2
    46   21   26 1
    47   22   23 1
    48   23   24 1
    49   23   25 1
    50   23   49 1
    51   24   50 1
    52   24   51 1
    53   24   52 1
    54   25   26 1
    55   25   53 1
    56   25   54 1
@<TRIPOS>SUBSTRUCTURE
     1 W84         1 TEMP              0 ****  ****    0 ROOT
