@<TRIPOS>MOLECULE
molecule
   36    37     1     0     0
SMALL
bcc


@<TRIPOS>ATOM
      1 OAB          0.0000     0.0000     0.0000 o          1 W85      -0.807800
      2 CAP          1.3480     0.0000     0.0000 c          1 W85       0.880800
      3 OAF          1.9540     0.0000     1.0510 o          1 W85      -0.807800
      4 CAT          2.0880    -0.0010    -1.2840 cc         1 W85       0.042400
      5 NAM          1.4100    -0.1260    -2.4780 ns         1 W85      -0.429100
      6 CAV          2.0630    -0.1290    -3.6520 c          1 W85       0.799500
      7 OAD          1.4280    -0.2410    -4.6820 o          1 W85      -0.703500
      8 NAN          3.4010    -0.0100    -3.7180 ns         1 W85      -0.567500
      9 CAW          4.1310     0.1170    -2.5910 c          1 W85       0.699700
     10 OAE          5.3420     0.2250    -2.6460 o          1 W85      -0.656500
     11 CAU          3.4410     0.1280    -1.2960 cd         1 W85      -0.281400
     12 CAL          4.2130     0.2670    -0.0100 c3         1 W85      -0.005200
     13 CAK          4.6400    -1.1190     0.4810 c3         1 W85      -0.025100
     14 CAR          5.4130    -0.9790     1.7680 ca         1 W85      -0.075300
     15 CAJ          6.7820    -0.8160     1.7340 ca         1 W85      -0.067000
     16 CAH          4.7470    -1.0100     2.9790 ca         1 W85      -0.076000
     17 CAG          5.4490    -0.8820     4.1650 ca         1 W85      -0.157000
     18 CAI          6.8190    -0.7240     4.1470 ca         1 W85      -0.100000
     19 CAS          7.4970    -0.6870     2.9260 ca         1 W85      -0.151600
     20 CAQ          8.9640    -0.5130     2.8980 c          1 W85       0.650700
     21 OAC          9.5510    -0.4810     1.8350 o          1 W85      -0.559000
     22 OAO          9.6490    -0.3880     4.0500 os         1 W85      -0.433900
     23 CAA         11.0880    -0.2200     3.9460 c3         1 W85       0.141700
     24 H2           3.8570    -0.0160    -4.6090 hn         1 W85       0.342500
     25 H4           3.5870     0.7370     0.7390 hc         1 W85       0.076200
     26 H5           5.0920     0.8760    -0.1800 hc         1 W85       0.076200
     27 H6           5.2660    -1.5900    -0.2670 hc         1 W85       0.053700
     28 H7           3.7610    -1.7280     0.6520 hc         1 W85       0.053700
     29 H8           7.3020    -0.7890     0.7840 ha         1 W85       0.158000
     30 H9           3.6710    -1.1340     3.0000 ha         1 W85       0.166000
     31 H10          4.9210    -0.9090     5.1110 ha         1 W85       0.126000
     32 H11          7.3670    -0.6240     5.0760 ha         1 W85       0.132000
     33 H12         11.3060     0.6770     3.3790 h1         1 W85       0.042700
     34 H13         11.5160    -1.0780     3.4430 h1         1 W85       0.042700
     35 H14         11.5140    -0.1320     4.9380 h1         1 W85       0.042700
     36 H15          0.4130    -0.2160    -2.4690 hn         1 W85       0.377500
@<TRIPOS>BOND
     1    23    22 1
     2    22    20 1
     3    20    21 2
     4    20    19 1
     5    19    15 ar
     6    19    18 ar
     7    15    14 ar
     8    18    17 ar
     9    14    13 1
    10    14    16 ar
    11    13    12 1
    12    16    17 ar
    13    12    11 1
    14    10     9 2
    15    11     9 1
    16    11     4 2
    17     9     8 1
    18     4     2 1
    19     4     5 1
    20     3     2 1
    21     8     6 1
    22     2     1 1
    23     5     6 1
    24     6     7 2
    25     8    24 1
    26    12    25 1
    27    12    26 1
    28    13    27 1
    29    13    28 1
    30    15    29 1
    31    16    30 1
    32    17    31 1
    33    18    32 1
    34    23    33 1
    35    23    34 1
    36    23    35 1
    37     5    36 1
@<TRIPOS>SUBSTRUCTURE
     1 W85         1 TEMP              0 ****  ****    0 ROOT
