@<TRIPOS>MOLECULE
molecule
   42    43     1     0     0
SMALL
bcc


@<TRIPOS>ATOM
      1 OAB          0.0000     0.0000     0.0000 o          1 W86      -0.806300
      2 CAR          1.2140     0.0000     0.0000 c          1 W86       0.879800
      3 OAF          1.8870     0.0000     1.1670 o          1 W86      -0.806300
      4 CAV          1.9550    -0.0050    -1.2840 cc         1 W86       0.040400
      5 NAO          3.3280     0.1200    -1.2950 ns         1 W86      -0.428100
      6 CAX          4.0170     0.1170    -2.4480 c          1 W86       0.798500
      7 OAD          5.2280     0.2300    -2.4140 o          1 W86      -0.706500
      8 NAP          3.4050    -0.0080    -3.6380 ns         1 W86      -0.567500
      9 CAY          2.0630    -0.1340    -3.7070 c          1 W86       0.700700
     10 OAE          1.5070    -0.2480    -4.7820 o          1 W86      -0.659500
     11 CAW          1.2880    -0.1390    -2.4600 cd         1 W86      -0.278400
     12 CAN         -0.2120    -0.2840    -2.4850 c3         1 W86      -0.008200
     13 CAL         -0.8560     1.0980    -2.6130 c3         1 W86      -0.064400
     14 CAK         -2.3790     0.9520    -2.6380 c3         1 W86      -0.073400
     15 CAM         -3.0230     2.3340    -2.7660 c3         1 W86      -0.047100
     16 CAT         -4.5220     2.1880    -2.7920 ca         1 W86      -0.030300
     17 CAH         -5.1780     2.0190    -3.9980 ca         1 W86      -0.145500
     18 CAJ         -6.5500     1.8860    -4.0270 ca         1 W86      -0.072500
     19 CAG         -5.2360     2.2200    -1.6070 ca         1 W86      -0.145500
     20 CAI         -6.6090     2.0880    -1.6210 ca         1 W86      -0.072500
     21 CAU         -7.2780     1.9220    -2.8360 ca         1 W86      -0.155600
     22 CAS         -8.7490     1.7810    -2.8610 c          1 W86       0.652700
     23 OAC         -9.3270     1.6330    -3.9180 o          1 W86      -0.564000
     24 OAQ         -9.4480     1.8170    -1.7100 os         1 W86      -0.428900
     25 CAA        -10.8890     1.6710    -1.8090 c3         1 W86       0.141700
     26 H2           3.9470    -0.0070    -4.4790 hn         1 W86       0.340500
     27 H4          -0.5020    -0.8970    -3.3290 hc         1 W86       0.071700
     28 H5          -0.5450    -0.7530    -1.5670 hc         1 W86       0.071700
     29 H6          -0.5660     1.7120    -1.7690 hc         1 W86       0.042200
     30 H7          -0.5240     1.5680    -3.5310 hc         1 W86       0.042200
     31 H8          -2.7110     0.4820    -1.7200 hc         1 W86       0.046200
     32 H9          -2.6680     0.3380    -3.4820 hc         1 W86       0.046200
     33 H10         -2.6900     2.8030    -3.6840 hc         1 W86       0.051200
     34 H11         -2.7330     2.9470    -1.9220 hc         1 W86       0.051200
     35 H12         -4.6130     2.0000    -4.9220 ha         1 W86       0.142500
     36 H13         -7.0680     1.8210    -4.9770 ha         1 W86       0.144000
     37 H14         -4.7160     2.3560    -0.6660 ha         1 W86       0.142500
     38 H15         -7.1730     2.1930    -0.7030 ha         1 W86       0.144000
     39 H16        -11.2920     2.4710    -2.4190 h1         1 W86       0.044700
     40 H17        -11.3250     1.7180    -0.8180 h1         1 W86       0.044700
     41 H18        -11.1250     0.7170    -2.2620 h1         1 W86       0.044700
     42 H19          3.8190     0.2140    -0.4290 hn         1 W86       0.376500
@<TRIPOS>BOND
     1     7     6 2
     2     6     5 1
     3     6     8 1
     4     5     4 1
     5     8     9 1
     6     4     2 1
     7     4    11 2
     8     1     2 1
     9     3     2 1
    10     9    11 1
    11     9    10 2
    12    11    12 1
    13    12    13 1
    14    13    14 1
    15    14    15 1
    16    25    24 1
    17    18    17 ar
    18    18    21 ar
    19    17    16 ar
    20    24    22 1
    21    22    21 1
    22    22    23 2
    23    21    20 ar
    24    16    15 1
    25    16    19 ar
    26    20    19 ar
    27     8    26 1
    28    12    27 1
    29    12    28 1
    30    13    29 1
    31    13    30 1
    32    14    31 1
    33    14    32 1
    34    15    33 1
    35    15    34 1
    36    17    35 1
    37    18    36 1
    38    19    37 1
    39    20    38 1
    40    25    39 1
    41    25    40 1
    42    25    41 1
    43     5    42 1
@<TRIPOS>SUBSTRUCTURE
     1 W86         1 TEMP              0 ****  ****    0 ROOT
