@<TRIPOS>MOLECULE
W86
   42    43     1     0     0
SMALL
bcc


@<TRIPOS>ATOM
      1 OAB          0.0000     0.0000     0.0000 o          1 W86      -0.854300
      2 CAR          1.2140     0.0000     0.0000 c          1 W86       0.974800
      3 OAF          1.8870     0.0000     1.1670 o          1 W86      -0.854300
      4 CAV          1.9550    -0.0050    -1.2840 cc         1 W86      -0.133600
      5 NAO          3.3280     0.1200    -1.2950 ns         1 W86       0.054900
      6 CAX          4.0170     0.1170    -2.4480 c          1 W86       0.559500
      7 OAD          5.2280     0.2300    -2.4140 o          1 W86      -0.761500
      8 NAP          3.4050    -0.0080    -3.6380 ns         1 W86      -0.139500
      9 CAY          2.0630    -0.1340    -3.7070 c          1 W86       0.618700
     10 OAE          1.5070    -0.2480    -4.7820 o          1 W86      -0.699500
     11 CAW          1.2880    -0.1390    -2.4600 cd         1 W86      -0.268400
     12 CAN         -0.2120    -0.2840    -2.4850 c3         1 W86       0.019800
     13 CAL         -0.8560     1.0980    -2.6130 c3         1 W86      -0.017400
     14 CAK         -2.3790     0.9520    -2.6380 c3         1 W86      -0.022400
     15 CAM         -3.0230     2.3340    -2.7660 c3         1 W86       0.015900
     16 CAT         -4.5220     2.1880    -2.7920 ca         1 W86      -0.033300
     17 CAH         -5.1780     2.0190    -3.9980 ca         1 W86      -0.119500
     18 CAJ         -6.5500     1.8860    -4.0270 ca         1 W86      -0.045000
     19 CAG         -5.2360     2.2200    -1.6070 ca         1 W86      -0.119500
     20 CAI         -6.6090     2.0880    -1.6210 ca         1 W86      -0.045000
     21 CAU         -7.2780     1.9220    -2.8360 ca         1 W86      -0.175600
     22 CAS         -8.7490     1.7810    -2.8610 c          1 W86       0.726700
     23 OAC         -9.3270     1.6330    -3.9180 o          1 W86      -0.604000
     24 OAQ         -9.4480     1.8170    -1.7100 os         1 W86      -0.415900
     25 CAA        -10.8890     1.6710    -1.8090 c3         1 W86       0.269700
     26 H2           3.9470    -0.0070    -4.4790 hn         1 W86       0.187500
     27 H4          -0.5020    -0.8970    -3.3290 hc         1 W86       0.051700
     28 H5          -0.5450    -0.7530    -1.5670 hc         1 W86       0.051700
     29 H6          -0.5660     1.7120    -1.7690 hc         1 W86       0.016700
     30 H7          -0.5240     1.5680    -3.5310 hc         1 W86       0.016700
     31 H8          -2.7110     0.4820    -1.7200 hc         1 W86       0.018700
     32 H9          -2.6680     0.3380    -3.4820 hc         1 W86       0.018700
     33 H10         -2.6900     2.8030    -3.6840 hc         1 W86       0.020700
     34 H11         -2.7330     2.9470    -1.9220 hc         1 W86       0.020700
     35 H12         -4.6130     2.0000    -4.9220 ha         1 W86       0.116500
     36 H13         -7.0680     1.8210    -4.9770 ha         1 W86       0.114500
     37 H14         -4.7160     2.3560    -0.6660 ha         1 W86       0.116500
     38 H15         -7.1730     2.1930    -0.7030 ha         1 W86       0.114500
     39 H16        -11.2920     2.4710    -2.4190 h1         1 W86      -0.002633
     40 H17        -11.3250     1.7180    -0.8180 h1         1 W86      -0.002633
     41 H18        -11.1250     0.7170    -2.2620 h1         1 W86      -0.002633
     42 H19          3.8190     0.2140    -0.4290 hn         1 W86       0.211500
@<TRIPOS>BOND
     1     1     2 1   
     2     2     3 1   
     3     2     4 1   
     4     4     5 1   
     5     4    11 2   
     6     5     6 1   
     7     5    42 1   
     8     6     7 2   
     9     6     8 1   
    10     8     9 1   
    11     8    26 1   
    12     9    10 2   
    13     9    11 1   
    14    11    12 1   
    15    12    13 1   
    16    12    27 1   
    17    12    28 1   
    18    13    14 1   
    19    13    29 1   
    20    13    30 1   
    21    14    15 1   
    22    14    31 1   
    23    14    32 1   
    24    15    16 1   
    25    15    33 1   
    26    15    34 1   
    27    16    17 ar  
    28    16    19 ar  
    29    17    18 ar  
    30    17    35 1   
    31    18    21 ar  
    32    18    36 1   
    33    19    20 ar  
    34    19    37 1   
    35    20    21 ar  
    36    20    38 1   
    37    21    22 1   
    38    22    23 2   
    39    22    24 1   
    40    24    25 1   
    41    25    39 1   
    42    25    40 1   
    43    25    41 1   
@<TRIPOS>SUBSTRUCTURE
     1 W86         1 TEMP              0 ****  ****    0 ROOT
