@<TRIPOS>MOLECULE
W87
   48    50     1     0     0
SMALL
bcc


@<TRIPOS>ATOM
      1 OAB          0.0000     0.0000     0.0000 o          1 W87      -0.854800
      2 CAT          1.3470     0.0000     0.0000 c          1 W87       0.975800
      3 OAF          1.9550     0.0000     1.0500 o          1 W87      -0.854800
      4 CAX          2.0880    -0.0010    -1.2850 cc         1 W87      -0.135600
      5 NAQ          1.4100    -0.1250    -2.4780 ns         1 W87       0.055900
      6 CAZ          2.0630    -0.1280    -3.6520 c          1 W87       0.559500
      7 OAD          1.4270    -0.2400    -4.6830 o          1 W87      -0.762500
      8 NAR          3.4000    -0.0090    -3.7180 ns         1 W87      -0.138500
      9 CBA          4.1310     0.1160    -2.5920 c          1 W87       0.616700
     10 OAE          5.3420     0.2240    -2.6480 o          1 W87      -0.699500
     11 CAY          3.4400     0.1280    -1.2960 cd         1 W87      -0.266400
     12 CAP          4.2130     0.2710    -0.0100 c3         1 W87       0.019800
     13 CAN          4.6400    -1.1110     0.4860 c3         1 W87      -0.017400
     14 CAM          5.4240    -0.9650     1.7910 c3         1 W87      -0.023400
     15 CAO          5.8510    -2.3470     2.2880 c3         1 W87       0.020900
     16 CAV          6.6240    -2.2040     3.5740 ca         1 W87      -0.072300
     17 CAL          5.9590    -2.2300     4.7610 ca         1 W87      -0.086000
     18 CAI          8.0080    -2.0500     3.5290 ca         1 W87      -0.074000
     19 CAK          8.7350    -1.9180     4.6740 ca         1 W87      -0.136000
     20 CBC          8.0830    -1.9340     5.9130 ca         1 W87       0.014000
     21 CBB          6.6770    -2.0950     5.9620 ca         1 W87      -0.056000
     22 CAJ          6.0280    -2.1180     7.2080 ca         1 W87      -0.033000
     23 CAG          6.7360    -1.9860     8.3630 ca         1 W87      -0.147000
     24 CAH          8.1150    -1.8270     8.3620 ca         1 W87      -0.041000
     25 CAW          8.8220    -1.7970     7.1660 ca         1 W87      -0.152600
     26 CAU         10.2860    -1.6330     7.1620 c          1 W87       0.731700
     27 OAC         10.8800    -1.5080     6.1100 o          1 W87      -0.595000
     28 OAS         10.9660    -1.6240     8.3260 os         1 W87      -0.420900
     29 CAA         12.4060    -1.4590     8.2460 c3         1 W87       0.269700
     30 H2           3.8560    -0.0150    -4.6090 hn         1 W87       0.187500
     31 H4           3.5880     0.7460     0.7360 hc         1 W87       0.051200
     32 H5           5.0920     0.8800    -0.1840 hc         1 W87       0.051200
     33 H6           3.7600    -1.7190     0.6590 hc         1 W87       0.016700
     34 H7           5.2660    -1.5850    -0.2600 hc         1 W87       0.016700
     35 H8           4.7980    -0.4900     2.5370 hc         1 W87       0.018700
     36 H9           6.3030    -0.3560     1.6170 hc         1 W87       0.018700
     37 H10          6.4770    -2.8220     1.5420 hc         1 W87       0.018200
     38 H11          4.9720    -2.9560     2.4620 hc         1 W87       0.018200
     39 H12          4.9030    -2.4720     4.7860 ha         1 W87       0.119000
     40 H13          8.5130    -2.0380     2.5700 ha         1 W87       0.108000
     41 H14          9.8110    -1.7990     4.6260 ha         1 W87       0.163000
     42 H15          4.9520    -2.2410     7.2500 ha         1 W87       0.106000
     43 H16          6.2090    -2.0060     9.3090 ha         1 W87       0.100000
     44 H17          8.6440    -1.7250     9.3010 ha         1 W87       0.107000
     45 H18         12.8310    -2.2710     7.6670 h1         1 W87      -0.001967
     46 H19         12.6360    -0.5150     7.7670 h1         1 W87      -0.001967
     47 H20         12.8270    -1.4690     9.2440 h1         1 W87      -0.001967
     48 H21          0.4130    -0.2140    -2.4700 hn         1 W87       0.211500
@<TRIPOS>BOND
     1     1     2 1   
     2     2     3 1   
     3     2     4 1   
     4     4     5 1   
     5     4    11 2   
     6     5     6 1   
     7     5    48 1   
     8     6     7 2   
     9     6     8 1   
    10     8     9 1   
    11     8    30 1   
    12     9    10 2   
    13     9    11 1   
    14    11    12 1   
    15    12    13 1   
    16    12    31 1   
    17    12    32 1   
    18    13    14 1   
    19    13    33 1   
    20    13    34 1   
    21    14    15 1   
    22    14    35 1   
    23    14    36 1   
    24    15    16 1   
    25    15    37 1   
    26    15    38 1   
    27    16    17 ar  
    28    16    18 ar  
    29    17    21 ar  
    30    17    39 1   
    31    18    19 ar  
    32    18    40 1   
    33    19    20 ar  
    34    19    41 1   
    35    20    21 ar  
    36    20    25 ar  
    37    21    22 ar  
    38    22    23 ar  
    39    22    42 1   
    40    23    24 ar  
    41    23    43 1   
    42    24    25 ar  
    43    24    44 1   
    44    25    26 1   
    45    26    27 2   
    46    26    28 1   
    47    28    29 1   
    48    29    45 1   
    49    29    46 1   
    50    29    47 1   
@<TRIPOS>SUBSTRUCTURE
     1 W87         1 TEMP              0 ****  ****    0 ROOT
