@<TRIPOS>MOLECULE
molecule
   48    50     1     0     0
SMALL
bcc


@<TRIPOS>ATOM
      1 OAB          0.0000     0.0000     0.0000 o          1 W87      -0.806300
      2 CAT          1.3470     0.0000     0.0000 c          1 W87       0.880800
      3 OAF          1.9550     0.0000     1.0500 o          1 W87      -0.806300
      4 CAX          2.0880    -0.0010    -1.2850 cc         1 W87       0.038400
      5 NAQ          1.4100    -0.1250    -2.4780 ns         1 W87      -0.428100
      6 CAZ          2.0630    -0.1280    -3.6520 c          1 W87       0.798500
      7 OAD          1.4270    -0.2400    -4.6830 o          1 W87      -0.707500
      8 NAR          3.4000    -0.0090    -3.7180 ns         1 W87      -0.566500
      9 CBA          4.1310     0.1160    -2.5920 c          1 W87       0.699700
     10 OAE          5.3420     0.2240    -2.6480 o          1 W87      -0.660500
     11 CAY          3.4400     0.1280    -1.2960 cd         1 W87      -0.277400
     12 CAP          4.2130     0.2710    -0.0100 c3         1 W87      -0.008200
     13 CAN          4.6400    -1.1110     0.4860 c3         1 W87      -0.064400
     14 CAM          5.4240    -0.9650     1.7910 c3         1 W87      -0.073400
     15 CAO          5.8510    -2.3470     2.2880 c3         1 W87      -0.043100
     16 CAV          6.6240    -2.2040     3.5740 ca         1 W87      -0.065300
     17 CAL          5.9590    -2.2300     4.7610 ca         1 W87      -0.116000
     18 CAI          8.0080    -2.0500     3.5290 ca         1 W87      -0.108000
     19 CAK          8.7350    -1.9180     4.6740 ca         1 W87      -0.136000
     20 CBC          8.0830    -1.9340     5.9130 ca         1 W87       0.003000
     21 CBB          6.6770    -2.0950     5.9620 ca         1 W87      -0.049000
     22 CAJ          6.0280    -2.1180     7.2080 ca         1 W87      -0.068000
     23 CAG          6.7360    -1.9860     8.3630 ca         1 W87      -0.166000
     24 CAH          8.1150    -1.8270     8.3620 ca         1 W87      -0.067000
     25 CAW          8.8220    -1.7970     7.1660 ca         1 W87      -0.137600
     26 CAU         10.2860    -1.6330     7.1620 c          1 W87       0.657700
     27 OAC         10.8800    -1.5080     6.1100 o          1 W87      -0.558000
     28 OAS         10.9660    -1.6240     8.3260 os         1 W87      -0.432900
     29 CAA         12.4060    -1.4590     8.2460 c3         1 W87       0.140700
     30 H2           3.8560    -0.0150    -4.6090 hn         1 W87       0.340500
     31 H4           3.5880     0.7460     0.7360 hc         1 W87       0.071200
     32 H5           5.0920     0.8800    -0.1840 hc         1 W87       0.071200
     33 H6           3.7600    -1.7190     0.6590 hc         1 W87       0.042200
     34 H7           5.2660    -1.5850    -0.2600 hc         1 W87       0.042200
     35 H8           4.7980    -0.4900     2.5370 hc         1 W87       0.045700
     36 H9           6.3030    -0.3560     1.6170 hc         1 W87       0.045700
     37 H10          6.4770    -2.8220     1.5420 hc         1 W87       0.048200
     38 H11          4.9720    -2.9560     2.4620 hc         1 W87       0.048200
     39 H12          4.9030    -2.4720     4.7860 ha         1 W87       0.144000
     40 H13          8.5130    -2.0380     2.5700 ha         1 W87       0.135000
     41 H14          9.8110    -1.7990     4.6260 ha         1 W87       0.178000
     42 H15          4.9520    -2.2410     7.2500 ha         1 W87       0.136000
     43 H16          6.2090    -2.0060     9.3090 ha         1 W87       0.126000
     44 H17          8.6440    -1.7250     9.3010 ha         1 W87       0.138000
     45 H18         12.8310    -2.2710     7.6670 h1         1 W87       0.046033
     46 H19         12.6360    -0.5150     7.7670 h1         1 W87       0.046033
     47 H20         12.8270    -1.4690     9.2440 h1         1 W87       0.046033
     48 H21          0.4130    -0.2140    -2.4700 hn         1 W87       0.376500
@<TRIPOS>BOND
     1     7     6 2
     2     6     5 1
     3     6     8 1
     4     5     4 1
     5     8     9 1
     6     4     2 1
     7     4    11 2
     8     2     3 1
     9     2     1 1
    10     9    11 1
    11     9    10 2
    12    11    12 1
    13    12    13 1
    14    13    14 1
    15    14    15 1
    16    27    26 2
    17    29    28 1
    18    18    19 ar
    19    18    16 ar
    20    19    20 ar
    21    26    28 1
    22    26    25 1
    23    15    16 1
    24    16    17 ar
    25    20    25 ar
    26    20    21 ar
    27    25    24 ar
    28    17    21 ar
    29    21    22 ar
    30    24    23 ar
    31    22    23 ar
    32     8    30 1
    33    12    31 1
    34    12    32 1
    35    13    33 1
    36    13    34 1
    37    14    35 1
    38    14    36 1
    39    15    37 1
    40    15    38 1
    41    17    39 1
    42    18    40 1
    43    19    41 1
    44    22    42 1
    45    23    43 1
    46    24    44 1
    47    29    45 1
    48    29    46 1
    49    29    47 1
    50     5    48 1
@<TRIPOS>SUBSTRUCTURE
     1 W87         1 TEMP              0 ****  ****    0 ROOT
