@<TRIPOS>MOLECULE
molecule
   44    46     1     0     0
SMALL
bcc


@<TRIPOS>ATOM
      1 OAB          0.0000     0.0000     0.0000 o          1 W88      -0.804800
      2 CAT          1.2140     0.0000     0.0000 c          1 W88       0.879800
      3 OAF          1.8880     0.0000     1.1650 o          1 W88      -0.804800
      4 CAX          1.9550    -0.0060    -1.2850 cc         1 W88       0.031400
      5 NAQ          3.3280     0.1180    -1.2970 ns         1 W88      -0.428100
      6 CAY          4.0160     0.1150    -2.4510 c          1 W88       0.798500
      7 OAC          5.2260     0.2270    -2.4170 o          1 W88      -0.718500
      8 NAR          3.4030    -0.0110    -3.6400 ns         1 W88      -0.569500
      9 CAZ          2.0610    -0.1380    -3.7070 c          1 W88       0.697700
     10 OAD          1.5040    -0.2510    -4.7830 o          1 W88      -0.657500
     11 CAW          1.2860    -0.1400    -2.4600 cd         1 W88      -0.267400
     12 CAP         -0.2130    -0.2850    -2.4830 c3         1 W88      -0.011200
     13 CAN         -0.8570     1.0960    -2.6130 c3         1 W88      -0.065400
     14 CAM         -2.3800     0.9500    -2.6360 c3         1 W88      -0.073400
     15 CAO         -3.0240     2.3310    -2.7650 c3         1 W88      -0.034100
     16 CAU         -4.5230     2.1860    -2.7890 ca         1 W88      -0.094300
     17 CAK         -5.2180     2.2200    -1.6180 ca         1 W88      -0.115000
     18 CBA         -6.6160     2.0850    -1.6350 ca         1 W88      -0.037000
     19 CAJ         -7.3630     2.1160    -0.4420 ca         1 W88      -0.167000
     20 CAH         -8.7130     1.9850    -0.4820 ca         1 W88      -0.078000
     21 CAV         -9.3850     1.8180    -1.7060 ca         1 W88      -0.109600
     22 CAS        -10.8550     1.6770    -1.7210 c          1 W88       0.884200
     23 OAE        -11.5470     1.7100    -0.5660 o          1 W88      -0.845300
     24 OAA        -11.4400     1.5330    -2.7760 o          1 W88      -0.845300
     25 CAL         -8.6790     1.7840    -2.8980 ca         1 W88      -0.111000
     26 CBB         -7.2830     1.9180    -2.8750 ca         1 W88      -0.052000
     27 CAI         -6.5310     1.8890    -4.0640 ca         1 W88      -0.121000
     28 CAG         -5.1780     2.0270    -4.0090 ca         1 W88      -0.144000
     29 H2           3.9460    -0.0100    -4.4810 hn         1 W88       0.336500
     30 H4          -0.5040    -0.9000    -3.3270 hc         1 W88       0.071700
     31 H5          -0.5450    -0.7540    -1.5650 hc         1 W88       0.071700
     32 H6          -0.5260     1.5640    -3.5320 hc         1 W88       0.038700
     33 H7          -0.5670     1.7100    -1.7690 hc         1 W88       0.038700
     34 H8          -2.7110     0.4810    -1.7170 hc         1 W88       0.046200
     35 H9          -2.6710     0.3350    -3.4790 hc         1 W88       0.046200
     36 H10         -2.7340     2.9450    -1.9210 hc         1 W88       0.037200
     37 H11         -2.6910     2.8000    -3.6840 hc         1 W88       0.037200
     38 H12         -4.7080     2.4560    -0.6920 ha         1 W88       0.127000
     39 H13         -6.8590     2.2440     0.5090 ha         1 W88       0.113000
     40 H14         -9.2800     2.0080     0.4410 ha         1 W88       0.149000
     41 H16         -9.2000     1.6560    -3.8390 ha         1 W88       0.145000
     42 H17         -7.0270     1.7660    -5.0190 ha         1 W88       0.117000
     43 H18         -4.6020     2.0140    -4.9270 ha         1 W88       0.111000
     44 H19          3.8200     0.2130    -0.4310 hn         1 W88       0.374500
@<TRIPOS>BOND
     1     7     6 2
     2     6     5 1
     3     6     8 1
     4     5     4 1
     5     8     9 1
     6     1     2 1
     7     3     2 1
     8     4     2 1
     9     4    11 2
    10     9    11 1
    11     9    10 2
    12    11    12 1
    13    12    13 1
    14    13    14 1
    15    14    15 1
    16    28    27 ar
    17    28    16 ar
    18    27    26 ar
    19    15    16 1
    20    16    17 ar
    21    26    25 ar
    22    26    18 ar
    23    25    21 ar
    24    17    18 ar
    25    18    19 ar
    26    24    22 1
    27    21    22 1
    28    21    20 ar
    29    22    23 1
    30    19    20 ar
    31     8    29 1
    32    12    30 1
    33    12    31 1
    34    13    32 1
    35    13    33 1
    36    14    34 1
    37    14    35 1
    38    15    36 1
    39    15    37 1
    40    17    38 1
    41    19    39 1
    42    20    40 1
    43    25    41 1
    44    27    42 1
    45    28    43 1
    46     5    44 1
@<TRIPOS>SUBSTRUCTURE
     1 W88         1 TEMP              0 ****  ****    0 ROOT
