@<TRIPOS>MOLECULE
W8G
   29    31     1     0     0
SMALL
bcc


@<TRIPOS>ATOM
      1 N1           0.0000     0.0000     0.0000 nb         1 W8G      -0.708000
      2 C2           1.3280     0.0000     0.0000 ca         1 W8G       0.747900
      3 N3           2.0380     0.0000     1.1150 nb         1 W8G      -0.652000
      4 C4           1.4360     0.0000     2.3040 ca         1 W8G       0.279800
      5 C5           0.0300     0.0010     2.3480 ca         1 W8G      -0.373400
      6 C6          -0.6840     0.0000     1.1390 ca         1 W8G       0.585200
      7 NAA          1.9950    -0.0000    -1.2140 nv         1 W8G      -0.637500
      8 CAB          0.8120     0.0010     4.4610 cc         1 W8G      -0.275100
      9 CAC         -0.3350     0.0000     3.7640 cd         1 W8G      -0.130200
     10 CAD         -4.0540     0.4390    -0.2350 c3         1 W8G       0.091700
     11 CAE         -4.0640    -0.8440     2.2820 c3         1 W8G       0.091700
     12 CAF         -2.5860    -0.0010    -0.2350 c3         1 W8G       0.119300
     13 CAG         -2.5950    -1.1060     1.9360 c3         1 W8G       0.119300
     14 NAJ          1.8800     0.0010     3.5980 na         1 W8G       0.270900
     15 SAK         -5.0170    -0.7620     0.7350 ss         1 W8G      -0.414200
     16 NAP         -2.0670    -0.0000     1.1340 nh         1 W8G      -0.456300
     17 HNAA         2.2870    -0.8650    -1.6240 hn         1 W8G       0.278300
     18 HNAB         2.1870     0.8650    -1.6800 hn         1 W8G       0.278300
     19 HAB          0.8850     0.0010     5.5420 h4         1 W8G       0.145000
     20 HAC         -1.3380     0.0000     4.1720 ha         1 W8G       0.137000
     21 HADA        -4.1390     1.4210     0.2160 h1         1 W8G       0.051700
     22 HAE         -4.1500     0.0970     2.8120 h1         1 W8G       0.051700
     23 HAEA        -4.4420    -1.6510     2.8980 h1         1 W8G       0.051700
     24 HAF         -2.5110    -1.0000    -0.6470 h1         1 W8G       0.043450
     25 HAFA        -2.0060     0.6870    -0.8390 h1         1 W8G       0.043450
     26 HAG         -2.0210    -1.1920     2.8500 h1         1 W8G       0.043450
     27 HAGA        -2.5190    -2.0270     1.3700 h1         1 W8G       0.043450
     28 HNAJ         2.8420     0.0010     3.8740 hn         1 W8G       0.120700
     29 HAD         -4.4260     0.4660    -1.2520 h1         1 W8G       0.051700
@<TRIPOS>BOND
     1     1     2 ar  
     2     1     6 ar  
     3     2     3 ar  
     4     2     7 1   
     5     3     4 ar  
     6     4     5 ar  
     7     4    14 1   
     8     5     6 ar  
     9     5     9 1   
    10     6    16 1   
    11     7    17 1   
    12     7    18 1   
    13     8     9 2   
    14     8    14 1   
    15     8    19 1   
    16     9    20 1   
    17    10    12 1   
    18    10    15 1   
    19    10    21 1   
    20    10    29 1   
    21    11    13 1   
    22    11    15 1   
    23    11    22 1   
    24    11    23 1   
    25    12    16 1   
    26    12    24 1   
    27    12    25 1   
    28    13    16 1   
    29    13    26 1   
    30    13    27 1   
    31    14    28 1   
@<TRIPOS>SUBSTRUCTURE
     1 W8G         1 TEMP              0 ****  ****    0 ROOT
