@<TRIPOS>MOLECULE
molecule
   31    33     1     0     0
SMALL
bcc


@<TRIPOS>ATOM
      1 CAH          0.0000     0.0000     0.0000 cc         1 W8L      -0.189200
      2 CAG          1.4610     0.0000     0.0000 ca         1 W8L      -0.000800
      3 CAB          2.1980     0.0000     1.1860 ca         1 W8L      -0.090300
      4 CAA          1.4920    -0.0010     2.5170 c3         1 W8L      -0.045800
      5 CAC          3.5630    -0.0010     1.1330 ca         1 W8L      -0.095000
      6 CAD          4.2310    -0.0010    -0.0860 ca         1 W8L      -0.146000
      7 CAE          3.5300    -0.0010    -1.2720 ca         1 W8L      -0.062000
      8 CAF          2.1350    -0.0010    -1.2450 ca         1 W8L      -0.153600
      9 CAK          1.3360    -0.0010    -2.4740 c          1 W8L       0.711100
     10 OAL          1.8830    -0.0020    -3.5620 o          1 W8L      -0.638500
     11 NAJ         -0.0090    -0.0010    -2.3900 ns         1 W8L      -0.437100
     12 CAI         -0.6650    -0.0010    -1.1830 cd         1 W8L       0.096400
     13 CAM         -2.1430    -0.0010    -1.1720 ca         1 W8L      -0.064800
     14 CAN         -2.8530    -0.0010    -2.3750 ca         1 W8L      -0.106000
     15 CAO         -4.2320    -0.0010    -2.3580 ca         1 W8L      -0.116500
     16 CAP         -4.9130     0.0000    -1.1530 ca         1 W8L       0.035400
     17 Cl          -6.6490     0.0000    -1.1390 cl         1 W8L      -0.099400
     18 CAR         -4.2150    -0.0010     0.0440 ca         1 W8L      -0.116500
     19 CAS         -2.8360    -0.0060     0.0400 ca         1 W8L      -0.106000
     20 HAH         -0.5470    -0.0000     0.9350 ha         1 W8L       0.152000
     21 HAA1         2.2250    -0.0010     3.3150 hc         1 W8L       0.044700
     22 HAA2         0.8710     0.8830     2.5970 hc         1 W8L       0.044700
     23 HAA3         0.8720    -0.8860     2.5960 hc         1 W8L       0.044700
     24 HAC          4.1340    -0.0010     2.0540 ha         1 W8L       0.132000
     25 HAD          5.3140    -0.0020    -0.1040 ha         1 W8L       0.136000
     26 HAE          4.0570    -0.0010    -2.2190 ha         1 W8L       0.156000
     27 HAJ         -0.5470    -0.0020    -3.2340 hn         1 W8L       0.335500
     28 HAN         -2.3220    -0.0020    -3.3190 ha         1 W8L       0.140500
     29 HAS         -2.2910    -0.0070     0.9760 ha         1 W8L       0.140500
     30 HAO         -4.7830    -0.0010    -3.2900 ha         1 W8L       0.150000
     31 HAR         -4.7530    -0.0030     0.9840 ha         1 W8L       0.150000
@<TRIPOS>BOND
     1     1     2 1
     2     1    12 2
     3     2     3 ar
     4     2     8 ar
     5     3     4 1
     6     3     5 ar
     7     5     6 ar
     8     6     7 ar
     9     7     8 ar
    10     8     9 1
    11     9    10 2
    12     9    11 1
    13    11    12 1
    14    12    13 1
    15    13    14 ar
    16    13    19 ar
    17    14    15 ar
    18    15    16 ar
    19    16    17 1
    20    16    18 ar
    21    18    19 ar
    22     1    20 1
    23     4    21 1
    24     4    22 1
    25     4    23 1
    26     5    24 1
    27     6    25 1
    28     7    26 1
    29    11    27 1
    30    14    28 1
    31    19    29 1
    32    15    30 1
    33    18    31 1
@<TRIPOS>SUBSTRUCTURE
     1 W8L         1 TEMP              0 ****  ****    0 ROOT
