@<TRIPOS>MOLECULE
W8R
   54    56     1     0     0
SMALL
bcc


@<TRIPOS>ATOM
      1 O1          0.1450    0.6290    0.0570 os        1 W8R     -0.122100
      2 N2          1.4380    0.7290   -0.1760 nc        1 W8R     -0.362300
      3 C3          2.1170    0.4710    0.9610 cd        1 W8R      0.319600
      4 C31         3.5790    0.4750    1.1380 c3        1 W8R     -0.132400
      5 C4          1.1530    0.1790    2.0260 cd        1 W8R     -0.364600
      6 C5         -0.0790    0.2890    1.4160 cc        1 W8R      0.265000
      7 C1C        -1.4750    0.1280    1.8410 c3        1 W8R     -0.117700
      8 C2C        -2.2000    1.4600    1.9150 c3        1 W8R     -0.078400
      9 C3C        -3.6460    1.2630    2.3150 c3        1 W8R     -0.079400
     10 C4C        -4.3710    2.5890    2.4030 c3        1 W8R     -0.078400
     11 C5C        -5.8190    2.3940    2.7990 c3        1 W8R     -0.078400
     12 C6C        -6.5380    3.7230    2.8920 c3        1 W8R     -0.086400
     13 C7C        -7.9880    3.5080    3.2890 c3        1 W8R      0.128400
     14 O1B        -8.5690    4.8170    3.3620 os        1 W8R     -0.327900
     15 C1B        -9.8990    4.8710    3.7150 ca        1 W8R      0.153100
     16 C2B       -10.4370    6.1730    3.7800 ca        1 W8R     -0.198000
     17 C3B       -11.7690    6.3400    4.1280 ca        1 W8R     -0.049500
     18 C4B       -12.5760    5.2260    4.4120 ca        1 W8R     -0.168900
     19 C5B       -12.0330    3.9380    4.3450 ca        1 W8R     -0.049500
     20 C6B       -10.6960    3.7550    3.9970 ca        1 W8R     -0.198000
     21 C2A       -13.9770    5.4120    4.7770 ce        1 W8R      0.642200
     22 N3A       -14.8850    4.5240    5.0880 n2        1 W8R     -0.634900
     23 C4A       -16.1380    5.2260    5.3930 c3        1 W8R      0.089500
     24 CM1       -17.3170    4.7960    4.5390 c3        1 W8R     -0.086100
     25 C5A       -15.8090    6.7370    5.1920 c3        1 W8R      0.089400
     26 O1A       -14.4150    6.7560    4.8070 os        1 W8R     -0.458400
     27 H311        4.1150    0.7260    0.1890 hc        1 W8R      0.057367
     28 H312        3.8590    1.2290    1.9160 hc        1 W8R      0.057367
     29 H313        3.9160   -0.5350    1.4820 hc        1 W8R      0.057367
     30 H4          1.3940   -0.0660    3.0540 ha        1 W8R      0.173000
     31 H1C1       -2.0060   -0.5460    1.1130 hc        1 W8R      0.066700
     32 H1C2       -1.4900   -0.3730    2.8460 hc        1 W8R      0.066700
     33 H2C1       -1.6890    2.1260    2.6590 hc        1 W8R      0.053700
     34 H2C2       -2.1440    1.9680    0.9170 hc        1 W8R      0.053700
     35 H3C1       -4.1580    0.6030    1.5650 hc        1 W8R      0.041200
     36 H3C2       -3.6960    0.7390    3.3060 hc        1 W8R      0.041200
     37 H4C1       -4.3190    3.1130    1.4130 hc        1 W8R      0.045200
     38 H4C2       -3.8610    3.2480    3.1540 hc        1 W8R      0.045200
     39 H5C1       -6.3310    1.7400    2.0450 hc        1 W8R      0.041700
     40 H5C2       -5.8720    1.8660    3.7870 hc        1 W8R      0.041700
     41 H6C1       -6.0380    4.3830    3.6480 hc        1 W8R      0.059200
     42 H6C2       -6.4970    4.2560    1.9070 hc        1 W8R      0.059200
     43 H7C1       -8.5330    2.8980    2.5220 h1        1 W8R      0.041200
     44 H7C2       -8.0640    3.0090    4.2910 h1        1 W8R      0.041200
     45 H2B        -9.7940    7.0350    3.5550 ha        1 W8R      0.147500
     46 H3B       -12.2020    7.3530    4.1820 ha        1 W8R      0.156500
     47 H5B       -12.6600    3.0590    4.5660 ha        1 W8R      0.156500
     48 H6B       -10.2860    2.7360    3.9480 ha        1 W8R      0.147500
     49 H4A       -16.3840    5.0260    6.4750 h1        1 W8R      0.073700
     50 HM11      -18.2210    5.3720    4.8500 hc        1 W8R      0.044367
     51 HM12      -17.5200    3.7060    4.6730 hc        1 W8R      0.044367
     52 HM13      -17.1240    4.9900    3.4570 hc        1 W8R      0.044367
     53 H5A1      -16.3880    7.2040    4.3610 h1        1 W8R      0.062700
     54 H5A2      -15.8990    7.3300    6.1320 h1        1 W8R      0.062700
@<TRIPOS>BOND
     1    1    2 1   
     2    1    6 1   
     3    2    3 2   
     4    3    4 1   
     5    3    5 1   
     6    4   27 1   
     7    4   28 1   
     8    4   29 1   
     9    5    6 2   
    10    5   30 1   
    11    6    7 1   
    12    7    8 1   
    13    7   31 1   
    14    7   32 1   
    15    8    9 1   
    16    8   33 1   
    17    8   34 1   
    18    9   10 1   
    19    9   35 1   
    20    9   36 1   
    21   10   11 1   
    22   10   37 1   
    23   10   38 1   
    24   11   12 1   
    25   11   39 1   
    26   11   40 1   
    27   12   13 1   
    28   12   41 1   
    29   12   42 1   
    30   13   14 1   
    31   13   43 1   
    32   13   44 1   
    33   14   15 1   
    34   15   16 ar  
    35   15   20 ar  
    36   16   17 ar  
    37   16   45 1   
    38   17   18 ar  
    39   17   46 1   
    40   18   19 ar  
    41   18   21 1   
    42   19   20 ar  
    43   19   47 1   
    44   20   48 1   
    45   21   22 2   
    46   21   26 1   
    47   22   23 1   
    48   23   24 1   
    49   23   25 1   
    50   23   49 1   
    51   24   50 1   
    52   24   51 1   
    53   24   52 1   
    54   25   26 1   
    55   25   53 1   
    56   25   54 1   
@<TRIPOS>SUBSTRUCTURE
     1 W8R         1 TEMP              0 ****  ****    0 ROOT
