@<TRIPOS>MOLECULE
W8X
   35    36     1     0     0
SMALL
bcc


@<TRIPOS>ATOM
      1 O23          0.0000     0.0000     0.0000 o          1 W8X      -0.874300
      2 C21          1.3420     0.0000     0.0000 c          1 W8X       0.972600
      3 O22          1.9470     0.0000     1.0470 o          1 W8X      -0.874300
      4 C20          2.0960    -0.0010    -1.3050 c3         1 W8X       0.067400
      5 O19          3.5000    -0.0010    -1.0440 os         1 W8X      -0.201900
      6 C12          4.3270    -0.0020    -2.1200 ca         1 W8X       0.243100
      7 C15          3.8000     0.0030    -3.4030 ca         1 W8X      -0.237000
      8 C17          4.6430     0.0020    -4.4980 ca         1 W8X       0.040400
      9 Cl1          3.9770     0.0090    -6.1010 cl         1 W8X      -0.061400
     10 C16          6.0190    -0.0040    -4.3240 ca         1 W8X      -0.193000
     11 C14          6.5590    -0.0090    -3.0560 ca         1 W8X      -0.042000
     12 C13          5.7170    -0.0020    -1.9400 ca         1 W8X      -0.218600
     13 C10          6.2890    -0.0010    -0.5800 c          1 W8X       0.586700
     14 O11          5.5530    -0.0000     0.3880 o          1 W8X      -0.574100
     15 N9           7.6260    -0.0020    -0.4120 ns         1 W8X      -0.237900
     16 C8           8.1930     0.0000     0.9390 c3         1 W8X       0.114300
     17 C2           9.6980    -0.0010     0.8510 ca         1 W8X      -0.102300
     18 C3          10.3880     1.1970     0.8100 ca         1 W8X      -0.080000
     19 C5          11.7680     1.1970     0.7310 ca         1 W8X      -0.090000
     20 C6          12.4590    -0.0010     0.6920 ca         1 W8X       0.039100
     21 Br7         14.3470    -0.0020     0.5830 br         1 W8X      -0.150100
     22 C4          11.7680    -1.1990     0.7330 ca         1 W8X      -0.090000
     23 C1          10.3880    -1.1980     0.8180 ca         1 W8X      -0.080000
     24 H2           1.8340    -0.8850    -1.8730 h1         1 W8X      -0.003300
     25 H3           1.8350     0.8840    -1.8740 h1         1 W8X      -0.003300
     26 H4           2.7270     0.0080    -3.5460 ha         1 W8X       0.149000
     27 H5           6.6720    -0.0070    -5.1880 ha         1 W8X       0.107000
     28 H6           7.6340    -0.0120    -2.9240 ha         1 W8X       0.093000
     29 H7           8.2310     0.0410    -1.2090 hn         1 W8X       0.175500
     30 H8           7.8630     0.8860     1.4680 h1         1 W8X       0.031700
     31 H9           7.8620    -0.8830     1.4710 h1         1 W8X       0.031700
     32 H10          9.8470     2.1350     0.8410 ha         1 W8X       0.116000
     33 H11         12.3080     2.1360     0.6990 ha         1 W8X       0.114000
     34 H12         12.3080    -2.1370     0.7050 ha         1 W8X       0.114000
     35 H13          9.8470    -2.1360     0.8500 ha         1 W8X       0.116000
@<TRIPOS>BOND
     1     1     2 1   
     2     2     3 1   
     3     2     4 1   
     4     4     5 1   
     5     4    24 1   
     6     4    25 1   
     7     5     6 1   
     8     6     7 ar  
     9     6    12 ar  
    10     7     8 ar  
    11     7    26 1   
    12     8     9 1   
    13     8    10 ar  
    14    10    11 ar  
    15    10    27 1   
    16    11    12 ar  
    17    11    28 1   
    18    12    13 1   
    19    13    14 2   
    20    13    15 1   
    21    15    16 1   
    22    15    29 1   
    23    16    17 1   
    24    16    30 1   
    25    16    31 1   
    26    17    18 ar  
    27    17    23 ar  
    28    18    19 ar  
    29    18    32 1   
    30    19    20 ar  
    31    19    33 1   
    32    20    21 1   
    33    20    22 ar  
    34    22    23 ar  
    35    22    34 1   
    36    23    35 1   
@<TRIPOS>SUBSTRUCTURE
     1 W8X         1 TEMP              0 ****  ****    0 ROOT
