@<TRIPOS>MOLECULE
W8Z
   44    46     1     0     0
SMALL
bcc


@<TRIPOS>ATOM
      1 OAB          0.0000     0.0000     0.0000 o          1 W8Z      -0.853300
      2 CAS          1.2140     0.0000     0.0000 c          1 W8Z       0.971800
      3 OAE          1.8870     0.0000     1.1660 o          1 W8Z      -0.853300
      4 CAV          1.9540    -0.0060    -1.2840 cc         1 W8Z      -0.132600
      5 NAO          3.3280     0.1180    -1.2950 ns         1 W8Z       0.053900
      6 CAX          4.0160     0.1140    -2.4490 c          1 W8Z       0.560500
      7 OAC          5.2270     0.2260    -2.4150 o          1 W8Z      -0.761500
      8 NAP          3.4030    -0.0100    -3.6390 ns         1 W8Z      -0.138500
      9 CAY          2.0620    -0.1360    -3.7080 c          1 W8Z       0.617700
     10 OAD          1.5040    -0.2490    -4.7830 o          1 W8Z      -0.698500
     11 CAW          1.2880    -0.1400    -2.4600 cd         1 W8Z      -0.268400
     12 CAM         -0.2130    -0.2800    -2.4850 c3         1 W8Z       0.020800
     13 CAL         -0.8510     1.1040    -2.6240 c3         1 W8Z       0.035900
     14 CAT         -2.3510     0.9650    -2.6480 ca         1 W8Z      -0.079300
     15 CAJ         -2.9990     0.8950    -3.8420 ca         1 W8Z      -0.078000
     16 CAZ         -4.3980     0.7640    -3.8700 ca         1 W8Z      -0.070000
     17 CAH         -5.0990     0.6890    -5.0850 ca         1 W8Z      -0.073000
     18 CAF         -6.4550     0.5630    -5.0750 ca         1 W8Z      -0.138000
     19 CAG         -7.1610     0.5070    -3.8750 ca         1 W8Z      -0.112000
     20 CAI         -6.5170     0.5790    -2.6780 ca         1 W8Z      -0.101000
     21 CBA         -5.1170     0.7090    -2.6480 ca         1 W8Z       0.007000
     22 CAK         -4.4190     0.7840    -1.4330 ca         1 W8Z      -0.242000
     23 CAU         -3.0580     0.9050    -1.4430 ca         1 W8Z       0.187100
     24 OAR         -2.3820     0.9720    -0.2650 os         1 W8Z      -0.261900
     25 CAN         -3.1580     0.9050     0.9330 c3         1 W8Z       0.411200
     26 OAQ         -3.5880    -0.4410     1.1470 os         1 W8Z      -0.451600
     27 CAA         -2.5580    -1.3120     1.6170 c3         1 W8Z       0.243700
     28 H2           3.8200     0.2130    -0.4290 hn         1 W8Z       0.212500
     29 H3           3.9460    -0.0090    -4.4800 hn         1 W8Z       0.187500
     30 H4          -0.5480    -0.7420    -1.5640 hc         1 W8Z       0.055700
     31 H5          -0.5040    -0.8980    -3.3250 hc         1 W8Z       0.055700
     32 H6          -0.5160     1.5650    -3.5450 hc         1 W8Z       0.024700
     33 H7          -0.5600     1.7220    -1.7840 hc         1 W8Z       0.024700
     34 H8          -2.4500     1.0300    -4.7660 ha         1 W8Z       0.113000
     35 H9          -4.5640     0.7300    -6.0260 ha         1 W8Z       0.099000
     36 H10         -6.9920     0.5030    -6.0130 ha         1 W8Z       0.090000
     37 H11         -8.2400     0.4070    -3.8950 ha         1 W8Z       0.088000
     38 H12         -7.0800     0.5350    -1.7540 ha         1 W8Z       0.099000
     39 H13         -4.9550     0.7380    -0.4930 ha         1 W8Z       0.133000
     40 H14         -2.5560     1.2300     1.7720 h2         1 W8Z       0.010700
     41 H15         -4.0240     1.5490     0.8380 h2         1 W8Z       0.010700
     42 H16         -2.1430    -1.8640     0.7820 h1         1 W8Z       0.000033
     43 H17         -2.9730    -2.0060     2.3380 h1         1 W8Z       0.000033
     44 H18         -1.7760    -0.7270     2.0870 h1         1 W8Z       0.000033
@<TRIPOS>BOND
     1     1     2 1   
     2     2     3 1   
     3     2     4 1   
     4     4     5 1   
     5     4    11 2   
     6     5     6 1   
     7     5    28 1   
     8     6     7 2   
     9     6     8 1   
    10     8     9 1   
    11     8    29 1   
    12     9    10 2   
    13     9    11 1   
    14    11    12 1   
    15    12    13 1   
    16    12    30 1   
    17    12    31 1   
    18    13    14 1   
    19    13    32 1   
    20    13    33 1   
    21    14    15 ar  
    22    14    23 ar  
    23    15    16 ar  
    24    15    34 1   
    25    16    17 ar  
    26    16    21 ar  
    27    17    18 ar  
    28    17    35 1   
    29    18    19 ar  
    30    18    36 1   
    31    19    20 ar  
    32    19    37 1   
    33    20    21 ar  
    34    20    38 1   
    35    21    22 ar  
    36    22    23 ar  
    37    22    39 1   
    38    23    24 1   
    39    24    25 1   
    40    25    26 1   
    41    25    40 1   
    42    25    41 1   
    43    26    27 1   
    44    27    42 1   
    45    27    43 1   
    46    27    44 1   
@<TRIPOS>SUBSTRUCTURE
     1 W8Z         1 TEMP              0 ****  ****    0 ROOT
