@<TRIPOS>MOLECULE
W91
   39    41     1     0     0
SMALL
bcc


@<TRIPOS>ATOM
      1 C3         -0.1470    0.0770   -0.0820 cc        1 W91      0.321600
      2 C31        -1.1980    0.7180   -0.8900 c3        1 W91     -0.132400
      3 C4          1.0570    0.7590    0.4040 cc        1 W91     -0.361600
      4 C5          1.7430   -0.2110    1.1040 cd        1 W91      0.264000
      5 O1          0.9830   -1.4080    1.0350 os        1 W91     -0.125100
      6 N2         -0.1150   -1.2060    0.3360 nd        1 W91     -0.361300
      7 C1C         3.0000   -0.2890    1.8580 c3        1 W91     -0.117700
      8 C2C         3.7470    1.0280    1.8330 c3        1 W91     -0.084400
      9 C3C         5.0350    0.9040    2.6260 c3        1 W91      0.131400
     10 O1B         5.6670    2.1970    2.5400 os        1 W91     -0.329900
     11 C1B         6.8710    2.2620    3.2190 ca        1 W91      0.124100
     12 C2B         8.0790    1.9990    2.5450 ca        1 W91     -0.004100
     13 CL2         8.0880    1.4510    0.9380 cl        1 W91     -0.062400
     14 C3B         9.3010    2.1900    3.1930 ca        1 W91     -0.075500
     15 C4B         9.3260    2.6370    4.5200 ca        1 W91     -0.112900
     16 C5B         8.1310    2.8940    5.2020 ca        1 W91     -0.075500
     17 C6B         6.9070    2.7030    4.5560 ca        1 W91     -0.004100
     18 CL1         5.4780    3.0190    5.4150 cl        1 W91     -0.062400
     19 C2A        10.6070    2.8350    5.1950 ce        1 W91      0.626200
     20 N3A        10.8550    3.2340    6.4160 n2        1 W91     -0.617900
     21 C4A        12.3010    3.2680    6.6020 c3        1 W91      0.069800
     22 C5A        12.9050    2.8100    5.2490 c3        1 W91      0.090400
     23 O1A        11.7500    2.5540    4.4120 os        1 W91     -0.456400
     24 H311       -0.7510    1.1150   -1.8360 hc        1 W91      0.058367
     25 H312       -2.0180    0.0050   -1.1540 hc        1 W91      0.058367
     26 H313       -1.6390    1.5730   -0.3180 hc        1 W91      0.058367
     27 H4          1.3190    1.7960    0.2330 ha        1 W91      0.175000
     28 H1C1        3.6400   -1.1050    1.4200 hc        1 W91      0.072700
     29 H1C2        2.7710   -0.5830    2.9200 hc        1 W91      0.072700
     30 H2C1        3.9850    1.3230    0.7770 hc        1 W91      0.066700
     31 H2C2        3.1150    1.8440    2.2720 hc        1 W91      0.066700
     32 H3C1        4.8330    0.6630    3.7020 h1        1 W91      0.045200
     33 H3C2        5.7160    0.1310    2.1840 h1        1 W91      0.045200
     34 H3B        10.2500    1.9920    2.6650 ha        1 W91      0.176000
     35 H5B         8.1520    3.2470    6.2480 ha        1 W91      0.176000
     36 H4A1       12.5890    2.5800    7.4380 h1        1 W91      0.076700
     37 H4A2       12.6210    4.3090    6.8670 h1        1 W91      0.076700
     38 H5A1       13.5060    3.6030    4.7440 h1        1 W91      0.066200
     39 H5A2       13.4750    1.8540    5.3220 h1        1 W91      0.066200
@<TRIPOS>BOND
     1    1    2 1
     2    1    3 1
     3    1    6 2
     4    2   24 1
     5    2   25 1
     6    2   26 1
     7    3    4 2
     8    3   27 1
     9    4    5 1
    10    4    7 1
    11    5    6 1
    12    7    8 1
    13    7   28 1
    14    7   29 1
    15    8    9 1
    16    8   30 1
    17    8   31 1
    18    9   10 1
    19    9   32 1
    20    9   33 1
    21   10   11 1
    22   11   12 ar
    23   11   17 ar
    24   12   13 1
    25   12   14 ar
    26   14   15 ar
    27   14   34 1
    28   15   16 ar
    29   15   19 1
    30   16   17 ar
    31   16   35 1
    32   17   18 1
    33   19   20 2
    34   19   23 1
    35   20   21 1
    36   21   22 1
    37   21   36 1
    38   21   37 1
    39   22   23 1
    40   22   38 1
    41   22   39 1
@<TRIPOS>SUBSTRUCTURE
     1 W91         1 TEMP              0 ****  ****    0 ROOT
