@<TRIPOS>MOLECULE
W94
   61    65     1     0     0
SMALL
bcc


@<TRIPOS>ATOM
      1 C1           0.0000     0.0000     0.0000 cc         1 W94      -0.243600
      2 C2           1.3540     0.0000     0.0000 cd         1 W94      -0.273300
      3 C3           1.7840     0.0000     1.3310 cd         1 W94       0.249600
      4 N4           0.7270    -0.0000     2.1040 nc         1 W94      -0.595800
      5 N5          -0.4110     0.0000     1.2880 na         1 W94       0.655300
      6 C6          -1.7410     0.0000     1.7290 ca         1 W94      -0.167200
      7 C7          -2.6780    -0.8230     1.1170 ca         1 W94      -0.093000
      8 C8          -3.9880    -0.8210     1.5540 ca         1 W94      -0.089000
      9 C9          -4.3680     0.0010     2.6000 ca         1 W94      -0.084000
     10 C10         -3.4380     0.8220     3.2100 ca         1 W94      -0.089000
     11 C11         -2.1260     0.8190     2.7830 ca         1 W94      -0.093000
     12 C12          3.2170    -0.0000     1.7950 c3         1 W94       0.574600
     13 F13          3.6620     1.3180     1.9390 f          1 W94      -0.205633
     14 F14          3.3090    -0.6600     3.0260 f          1 W94      -0.205633
     15 F15          4.0140    -0.6610     0.8530 f          1 W94      -0.205633
     16 C16         -0.8890     0.0050    -1.2170 c3         1 W94       0.029600
     17 C17         -0.2700     0.8970    -2.2980 c3         1 W94      -0.025400
     18 C18         -1.1460     0.8500    -3.5520 c3         1 W94       0.141300
     19 N19         -1.2440    -0.5350    -4.0310 n3         1 W94      -0.521600
     20 C20         -1.8780    -1.4000    -3.0280 c3         1 W94       0.141300
     21 C21         -1.0240    -1.4210    -1.7580 c3         1 W94      -0.025400
     22 C22         -1.9610    -0.6000    -5.3110 c3         1 W94       0.105500
     23 C23         -1.9560    -2.0430    -5.8790 c3         1 W94      -0.043400
     24 C24         -3.2290    -2.0790    -6.7510 c3         1 W94       0.043500
     25 N25         -4.1260    -1.0170    -6.2590 n7         1 W94      -0.529200
     26 C26         -3.4760    -0.3480    -5.1110 c3         1 W94       0.090800
     27 C27         -3.9020    -3.4210    -6.6210 c          1 W94       0.598100
     28 N28         -3.4410    -4.4770    -7.3190 n          1 W94      -0.175800
     29 C29         -4.0510    -5.7960    -7.2340 c3         1 W94       0.051000
     30 C30         -3.3350    -6.8540    -8.1030 c3         1 W94       0.103700
     31 S31         -1.6570    -6.1120    -8.2680 ss         1 W94      -0.399200
     32 C32         -2.2850    -4.3790    -8.2320 c3         1 W94       0.163100
     33 O33         -4.8590    -3.5490    -5.8880 o          1 W94      -0.604100
     34 H2           1.9910     0.0000    -0.8760 ha         1 W94       0.151000
     35 H7          -2.3800    -1.4670     0.2980 ha         1 W94       0.127500
     36 H8          -4.7190    -1.4630     1.0770 ha         1 W94       0.111000
     37 H9          -5.3970     0.0040     2.9390 ha         1 W94       0.108000
     38 H10         -3.7380     1.4630     4.0310 ha         1 W94       0.111000
     39 H11         -1.3980     1.4630     3.2620 ha         1 W94       0.127500
     40 H16         -1.8690     0.3860    -0.9540 hc         1 W94       0.038700
     41 H17          0.7230     0.5370    -2.5380 hc         1 W94       0.030450
     42 H17A        -0.2140     1.9160    -1.9360 hc         1 W94       0.030450
     43 H18         -2.1360     1.2190    -3.3130 h1         1 W94       0.019200
     44 H18A        -0.7010     1.4670    -4.3240 h1         1 W94       0.019200
     45 H20         -1.9600    -2.4060    -3.4220 h1         1 W94       0.019200
     46 H20A        -2.8630    -1.0170    -2.7930 h1         1 W94       0.019200
     47 H21         -0.0420    -1.8130    -1.9900 hc         1 W94       0.030450
     48 H21A        -1.5030    -2.0450    -1.0120 hc         1 W94       0.030450
     49 H22         -1.5480     0.0970    -6.0300 h1         1 W94       0.041700
     50 H23         -2.0240    -2.7690    -5.0770 hc         1 W94       0.040200
     51 H23A        -1.0740    -2.2120    -6.4850 hc         1 W94       0.040200
     52 H24         -2.9700    -1.8900    -7.7860 h1         1 W94       0.025700
     53 HN25        -4.2850    -0.3500    -6.9880 hn         1 W94       0.247800
     54 H26         -3.8110    -0.7900    -4.1810 h1         1 W94       0.036200
     55 H26A        -3.6860     0.7150    -5.1290 h1         1 W94       0.036200
     56 H29         -4.0270    -6.1220    -6.2010 h1         1 W94       0.034200
     57 H29A        -5.0820    -5.7220    -7.5570 h1         1 W94       0.034200
     58 H30         -3.8140    -6.9470    -9.0710 h1         1 W94       0.054700
     59 H30A        -3.2880    -7.8070    -7.5900 h1         1 W94       0.054700
     60 H32         -2.6020    -4.0660    -9.2190 h2         1 W94       0.050700
     61 H32A        -1.5350    -3.7090    -7.8300 h2         1 W94       0.050700
@<TRIPOS>BOND
     1     1     2 2   
     2     1     5 1   
     3     1    16 1   
     4     2     3 1   
     5     2    34 1   
     6     3     4 2   
     7     3    12 1   
     8     4     5 1   
     9     5     6 1   
    10     6     7 ar  
    11     6    11 ar  
    12     7     8 ar  
    13     7    35 1   
    14     8     9 ar  
    15     8    36 1   
    16     9    10 ar  
    17     9    37 1   
    18    10    11 ar  
    19    10    38 1   
    20    11    39 1   
    21    12    13 1   
    22    12    14 1   
    23    12    15 1   
    24    16    17 1   
    25    16    21 1   
    26    16    40 1   
    27    17    18 1   
    28    17    41 1   
    29    17    42 1   
    30    18    19 1   
    31    18    43 1   
    32    18    44 1   
    33    19    20 1   
    34    19    22 1   
    35    20    21 1   
    36    20    45 1   
    37    20    46 1   
    38    21    47 1   
    39    21    48 1   
    40    22    23 1   
    41    22    26 1   
    42    22    49 1   
    43    23    24 1   
    44    23    50 1   
    45    23    51 1   
    46    24    25 1   
    47    24    27 1   
    48    24    52 1   
    49    25    26 1   
    50    25    53 1   
    51    26    54 1   
    52    26    55 1   
    53    27    28 1   
    54    27    33 2   
    55    28    29 1   
    56    28    32 1   
    57    29    30 1   
    58    29    56 1   
    59    29    57 1   
    60    30    31 1   
    61    30    58 1   
    62    30    59 1   
    63    31    32 1   
    64    32    60 1   
    65    32    61 1   
@<TRIPOS>SUBSTRUCTURE
     1 W94         1 TEMP              0 ****  ****    0 ROOT
