@<TRIPOS>MOLECULE
W9L
   30    31     1     0     0
SMALL
bcc


@<TRIPOS>ATOM
      1 C1           0.0000     0.0000     0.0000 c          1 W9L       0.564100
      2 N1           1.3480     0.0000     0.0000 ns         1 W9L      -0.043100
      3 O1          -0.6080     0.0000     1.0540 o          1 W9L      -0.692100
      4 C2           2.0460     0.1190     1.2040 ca         1 W9L      -0.069400
      5 N2          -0.6740     0.0060    -1.1660 ns         1 W9L      -0.220900
      6 C3           3.3610    -0.3800     1.3150 ca         1 W9L      -0.051000
      7 C4           4.0510    -0.2480     2.5460 ca         1 W9L      -0.018000
      8 C5           3.4140     0.3740     3.6330 ca         1 W9L      -0.117000
      9 C6           2.1430     0.8460     3.4970 ca         1 W9L      -0.072000
     10 C7           1.4580     0.7280     2.2920 ca         1 W9L      -0.125000
     11 C8          -2.1390     0.0060    -1.1660 c3         1 W9L       0.066000
     12 C9          -2.6490     0.0120    -2.6090 c3         1 W9L      -0.008100
     13 C11          5.9480    -1.3420     1.5850 ca         1 W9L      -0.104000
     14 C12          5.2690    -1.4720     0.3750 ca         1 W9L      -0.097000
     15 C40          3.9990    -1.0030     0.2320 ca         1 W9L      -0.104000
     16 C80          5.3610    -0.7440     2.6580 ca         1 W9L      -0.083000
     17 HN1          1.8480    -0.0410    -0.8660 hn         1 W9L       0.163500
     18 HN2         -0.1740     0.0130    -2.0330 hn         1 W9L       0.167500
     19 H5           3.9310     0.4750     4.5800 ha         1 W9L       0.106000
     20 H6           1.6610     1.3280     4.3390 ha         1 W9L       0.101000
     21 H7           0.4480     1.1110     2.2100 ha         1 W9L       0.160000
     22 H8          -2.5000    -0.8810    -0.6590 h1         1 W9L       0.025200
     23 H8A         -2.5010     0.8880    -0.6520 h1         1 W9L       0.025200
     24 H9          -3.7320     0.0110    -2.6090 hc         1 W9L       0.007700
     25 H9A         -2.2890     0.8990    -3.1150 hc         1 W9L       0.007700
     26 H9B         -2.2870    -0.8700    -3.1230 hc         1 W9L       0.007700
     27 H11          6.9580    -1.7240     1.6730 ha         1 W9L       0.100000
     28 H12          5.7580    -1.9520    -0.4640 ha         1 W9L       0.099000
     29 H40          3.4830    -1.1110    -0.7150 ha         1 W9L       0.096000
     30 H80          5.9010    -0.6510     3.5920 ha         1 W9L       0.106000
@<TRIPOS>BOND
     1     1     2 1   
     2     1     3 2   
     3     1     5 1   
     4     2     4 1   
     5     2    17 1   
     6     4     6 ar  
     7     4    10 ar  
     8     5    11 1   
     9     5    18 1   
    10     6     7 ar  
    11     6    15 ar  
    12     7     8 ar  
    13     7    16 ar  
    14     8     9 ar  
    15     8    19 1   
    16     9    10 ar  
    17     9    20 1   
    18    10    21 1   
    19    11    12 1   
    20    11    22 1   
    21    11    23 1   
    22    12    24 1   
    23    12    25 1   
    24    12    26 1   
    25    13    14 ar  
    26    13    16 ar  
    27    13    27 1   
    28    14    15 ar  
    29    14    28 1   
    30    15    29 1   
    31    16    30 1   
@<TRIPOS>SUBSTRUCTURE
     1 W9L         1 TEMP              0 ****  ****    0 ROOT
