@<TRIPOS>MOLECULE
W9M
   24    24     1     0     0
SMALL
bcc


@<TRIPOS>ATOM
      1 C1           0.0000     0.0000     0.0000 ca         1 W9M      -0.016600
      2 C2           1.3850     0.0000     0.0000 ca         1 W9M      -0.061600
      3 C3          -0.6910     0.0020     1.1970 ca         1 W9M      -0.140000
      4 Cl4         -0.8680     0.0070    -1.5030 cl         1 W9M      -0.011400
      5 C5           2.0790     0.0000     1.1970 ca         1 W9M      -0.065000
      6 Cl6          2.2520    -0.0020    -1.5040 cl         1 W9M      -0.012400
      7 C7           0.0030     0.0030     2.3990 ca         1 W9M      -0.062400
      8 C8           1.3920     0.0020     2.3960 ca         1 W9M      -0.133000
      9 N9          -0.6950     0.0040     3.6130 ns         1 W9M      -0.049100
     10 C10         -0.0990    -0.4490     4.7330 c          1 W9M       0.586100
     11 N11         -0.8220    -0.6230     5.8570 n          1 W9M      -0.184800
     12 O12          1.0910    -0.7010     4.7310 o          1 W9M      -0.691100
     13 C13         -0.1500    -0.9570     7.1160 c3         1 W9M       0.096800
     14 C14         -2.2800    -0.4780     5.8210 c3         1 W9M       0.096800
     15 H3          -1.7750     0.0020     1.1960 ha         1 W9M       0.116000
     16 H5           3.1620    -0.0000     1.1950 ha         1 W9M       0.117000
     17 H8           1.9360     0.0020     3.3320 ha         1 W9M       0.186000
     18 H9          -1.6190     0.3870     3.6580 hn         1 W9M       0.171500
     19 H131        -0.8780    -0.9830     7.9180 h1         1 W9M       0.009367
     20 H132         0.6020    -0.2090     7.3340 h1         1 W9M       0.009367
     21 H133         0.3220    -1.9280     7.0260 h1         1 W9M       0.009367
     22 H141        -2.6910    -0.7190     6.7930 h1         1 W9M       0.009367
     23 H142        -2.6910    -1.1510     5.0780 h1         1 W9M       0.009367
     24 H143        -2.5350     0.5430     5.5630 h1         1 W9M       0.009367
@<TRIPOS>BOND
     1     1     2 ar  
     2     1     3 ar  
     3     1     4 1   
     4     2     5 ar  
     5     2     6 1   
     6     3     7 ar  
     7     3    15 1   
     8     5     8 ar  
     9     5    16 1   
    10     7     8 ar  
    11     7     9 1   
    12     8    17 1   
    13     9    10 1   
    14     9    18 1   
    15    10    11 1   
    16    10    12 2   
    17    11    13 1   
    18    11    14 1   
    19    13    19 1   
    20    13    20 1   
    21    13    21 1   
    22    14    22 1   
    23    14    23 1   
    24    14    24 1   
@<TRIPOS>SUBSTRUCTURE
     1 W9M         1 TEMP              0 ****  ****    0 ROOT
