@<TRIPOS>MOLECULE
W9T
   45    46     1     0     0
SMALL
bcc


@<TRIPOS>ATOM
      1 O16         0.1970    0.0320   -0.0940 oh        1 W9T     -0.598800
      2 C16         1.6070   -0.0090   -0.0690 c3        1 W9T      0.143400
      3 C15         2.1290    0.0940    1.3690 c3        1 W9T      0.112100
      4 C14         3.6630    0.1270    1.4000 c3        1 W9T      0.123100
      5 O14         4.1510   -0.9210    0.5820 oh        1 W9T     -0.590800
      6 C13         4.1640   -0.0100    2.8490 c3        1 W9T      0.111100
      7 O13         5.5740   -0.1310    2.7800 oh        1 W9T     -0.605800
      8 C12         3.5410   -1.2560    3.4950 c3        1 W9T      0.087100
      9 O12         3.9580   -1.2720    4.8470 oh        1 W9T     -0.603800
     10 O15         1.5780   -1.0360    2.0490 os        1 W9T     -0.437600
     11 C11         2.0080   -1.1470    3.3980 c3        1 W9T      0.307900
     12 O4          1.4850   -2.3990    3.7960 os        1 W9T     -0.409600
     13 C4          0.0620   -2.4320    3.9080 c3        1 W9T      0.089100
     14 C5         -0.3840   -1.9090    5.2860 c3        1 W9T      0.072100
     15 O5         -0.8300   -3.0320    6.0620 os        1 W9T     -0.455600
     16 C6         -1.5330   -0.9060    5.1700 c3        1 W9T      0.116400
     17 O6         -1.8650   -0.3700    6.4330 oh        1 W9T     -0.592800
     18 C3         -0.3430   -3.9280    3.8700 c3        1 W9T      0.149100
     19 O3         -1.1240   -4.2420    2.7480 oh        1 W9T     -0.568800
     20 C2         -1.0790   -4.1570    5.2130 c3        1 W9T      0.257600
     21 O2         -2.4650   -4.1050    4.9800 oh        1 W9T     -0.616800
     22 C1         -0.6470   -5.4230    5.9650 c3        1 W9T      0.118400
     23 O1         -1.4030   -5.5640    7.1470 oh        1 W9T     -0.595800
     24 H1         -0.1150   -0.7650    0.3540 ho        1 W9T      0.412000
     25 H2          1.9430    0.8880   -0.6530 h1        1 W9T      0.069200
     26 H3          1.9930   -0.9500   -0.5430 h1        1 W9T      0.069200
     27 H4          1.7420    1.0300    1.8640 h1        1 W9T      0.053700
     28 H5          4.0190    1.1130    0.9860 h1        1 W9T      0.059700
     29 H6          5.1060   -0.9690    0.7310 ho        1 W9T      0.426000
     30 H7          3.8920    0.9040    3.4440 h1        1 W9T      0.059700
     31 H8          5.8780   -0.3520    3.6710 ho        1 W9T      0.431000
     32 H9          3.8890   -2.1830    2.9590 h1        1 W9T      0.088700
     33 H10         3.5820   -2.0700    5.2420 ho        1 W9T      0.424000
     34 H11         1.6000   -0.3030    4.0200 h2        1 W9T      0.052700
     35 H12        -0.4120   -1.8650    3.0640 h1        1 W9T      0.091700
     36 H13         0.4710   -1.4680    5.8660 h1        1 W9T      0.089700
     37 H14        -2.4270   -1.4100    4.7120 h1        1 W9T      0.057700
     38 H15        -1.2210   -0.0240    4.5510 h1        1 W9T      0.057700
     39 H16        -2.0930   -1.1160    7.0040 ho        1 W9T      0.412000
     40 H17         0.5670   -4.5850    3.7910 h1        1 W9T      0.111700
     41 H18        -1.9920   -3.8280    2.8560 ho        1 W9T      0.424000
     42 H19        -2.9080   -4.4350    5.7750 ho        1 W9T      0.439000
     43 H20         0.4500   -5.3760    6.1850 h1        1 W9T      0.072200
     44 H21        -0.8920   -6.3260    5.3460 h1        1 W9T      0.072200
     45 H22        -1.1630   -4.8300    7.7290 ho        1 W9T      0.416000
@<TRIPOS>BOND
     1    1    2 1   
     2    1   24 1   
     3    2    3 1   
     4    2   25 1   
     5    2   26 1   
     6    3    4 1   
     7    3   10 1   
     8    3   27 1   
     9    4    5 1   
    10    4    6 1   
    11    4   28 1   
    12    5   29 1   
    13    6    7 1   
    14    6    8 1   
    15    6   30 1   
    16    7   31 1   
    17    8    9 1   
    18    8   11 1   
    19    8   32 1   
    20    9   33 1   
    21   10   11 1   
    22   11   12 1   
    23   11   34 1   
    24   12   13 1   
    25   13   14 1   
    26   13   18 1   
    27   13   35 1   
    28   14   15 1   
    29   14   16 1   
    30   14   36 1   
    31   15   20 1   
    32   16   17 1   
    33   16   37 1   
    34   16   38 1   
    35   17   39 1   
    36   18   19 1   
    37   18   20 1   
    38   18   40 1   
    39   19   41 1   
    40   20   21 1   
    41   20   22 1   
    42   21   42 1   
    43   22   23 1   
    44   22   43 1   
    45   22   44 1   
    46   23   45 1   
@<TRIPOS>SUBSTRUCTURE
     1 W9T         1 TEMP              0 ****  ****    0 ROOT
