@<TRIPOS>MOLECULE
molecule
   45    46     1     0     0
SMALL
bcc


@<TRIPOS>ATOM
      1 O16          0.0000     0.0000     0.0000 oh         1 W9T      -0.598800
      2 C16          1.4290     0.0000     0.0000 c3         1 W9T       0.150400
      3 C15          1.9390     0.0000     1.4430 c3         1 W9T       0.156100
      4 C14          3.4650     0.1260     1.4440 c3         1 W9T       0.095100
      5 O14          4.0340    -0.9470     0.6930 oh         1 W9T      -0.577800
      6 C13          3.9720     0.0660     2.8890 c3         1 W9T       0.118100
      7 O13          5.4010     0.1090     2.8950 oh         1 W9T      -0.591800
      8 C12          3.4960    -1.2410     3.5310 c3         1 W9T       0.128100
      9 O12          3.9030    -1.2760     4.9000 oh         1 W9T      -0.597800
     10 O15          1.5620    -1.2220     2.0820 os         1 W9T      -0.413600
     11 C11          1.9690    -1.3140     3.4480 c3         1 W9T       0.342900
     12 O4           1.5210    -2.5560     3.9950 os         1 W9T      -0.390600
     13 C4           0.0990    -2.6800     4.0690 c3         1 W9T       0.095100
     14 C5          -0.4210    -2.2510     5.4640 c3         1 W9T       0.118100
     15 O5          -1.6710    -2.9650     5.5910 os         1 W9T      -0.404600
     16 C6          -0.6540    -0.7400     5.5110 c3         1 W9T       0.148400
     17 O6          -1.0200    -0.3560     6.8380 oh         1 W9T      -0.597800
     18 C3          -0.3300    -4.1660     4.0030 c3         1 W9T       0.136100
     19 O3          -0.8150    -4.4900     2.6990 oh         1 W9T      -0.561800
     20 C2          -1.4620    -4.2780     5.0440 c3         1 W9T       0.332600
     21 O2          -2.6580    -4.7370     4.4120 oh         1 W9T      -0.570800
     22 C1          -1.0520    -5.2450     6.1570 c3         1 W9T       0.109400
     23 O1          -2.1020    -5.3290     7.1240 oh         1 W9T      -0.595800
     24 H1          -0.3140     0.2480    -0.8540 ho         1 W9T       0.404000
     25 H2           1.7900     0.8840    -0.5110 h1         1 W9T       0.038700
     26 H3           1.7900    -0.8850    -0.5110 h1         1 W9T       0.038700
     27 H4           1.5090     0.8350     1.9820 h1         1 W9T       0.048700
     28 H5           3.7480     1.0740     1.0030 h1         1 W9T       0.040700
     29 H6           4.6530    -0.6020     0.0720 ho         1 W9T       0.406000
     30 H7           3.5760     0.9070     3.4450 h1         1 W9T       0.047700
     31 H8           5.6880     0.9680     3.1600 ho         1 W9T       0.406000
     32 H9           3.9260    -2.0810     2.9990 h1         1 W9T       0.086700
     33 H10          4.6040    -1.8980     5.0040 ho         1 W9T       0.417000
     34 H11          1.5390    -0.4920     4.0080 h2         1 W9T       0.035700
     35 H12         -0.3850    -2.1070     3.2880 h1         1 W9T       0.100700
     36 H13          0.2720    -2.5610     6.2370 h1         1 W9T       0.075700
     37 H14          0.2550    -0.2250     5.2240 h1         1 W9T       0.032700
     38 H15         -1.4500    -0.4750     4.8260 h1         1 W9T       0.032700
     39 H16         -1.3120     0.5400     6.8370 ho         1 W9T       0.402000
     40 H17          0.4980    -4.8090     4.2760 h1         1 W9T       0.058700
     41 H18         -0.3620    -5.2500     2.3740 ho         1 W9T       0.406000
     42 H19         -3.4060    -4.4420     4.9040 ho         1 W9T       0.428000
     43 H20         -0.1490    -4.8850     6.6340 h1         1 W9T       0.032200
     44 H21         -0.8710    -6.2260     5.7340 h1         1 W9T       0.032200
     45 H22         -1.9270    -6.0420     7.7160 ho         1 W9T       0.403000
@<TRIPOS>BOND
     1    23    22 1
     2    21    20 1
     3    22    20 1
     4    15    20 1
     5    15    14 1
     6    20    18 1
     7    16    14 1
     8    16    17 1
     9    14    13 1
    10    18    19 1
    11    18    13 1
    12    13    12 1
    13    12    11 1
    14    11    10 1
    15    11     8 1
    16    10     3 1
    17     1     2 1
    18     9     8 1
    19     2     3 1
    20     3     4 1
    21     8     6 1
    22     6     4 1
    23     6     7 1
    24     4     5 1
    25     1    24 1
    26     2    25 1
    27     2    26 1
    28     3    27 1
    29     4    28 1
    30     5    29 1
    31     6    30 1
    32     7    31 1
    33     8    32 1
    34     9    33 1
    35    11    34 1
    36    13    35 1
    37    14    36 1
    38    16    37 1
    39    16    38 1
    40    17    39 1
    41    18    40 1
    42    19    41 1
    43    21    42 1
    44    22    43 1
    45    22    44 1
    46    23    45 1
@<TRIPOS>SUBSTRUCTURE
     1 W9T         1 TEMP              0 ****  ****    0 ROOT
