@<TRIPOS>MOLECULE
molecule
   44    48     1     0     0
SMALL
bcc


@<TRIPOS>ATOM
      1 C1           0.0000     0.0000     0.0000 ca         1 W9Z       0.420600
      2 N1           1.3370     0.0000     0.0000 nb         1 W9Z      -0.679000
      3 C2          -0.7260     0.0010    -1.2040 ca         1 W9Z      -0.165300
      4 N2          -5.5640     2.1990    -0.1470 na         1 W9Z       0.097300
      5 C3          -2.0860     0.0020    -1.1730 ca         1 W9Z      -0.099000
      6 N3          -6.1390     2.3970     1.1100 nc         1 W9Z      -0.507800
      7 C4          -2.7770     0.0020     0.0380 ca         1 W9Z      -0.080300
      8 N4          -8.6170     4.5450     4.3430 nc         1 W9Z      -0.503800
      9 C5          -4.2840     0.0030     0.0330 c3         1 W9Z      -0.013700
     10 N5          -8.0440     3.3450     4.7820 na         1 W9Z       0.073400
     11 C6          -4.7840     1.2330    -0.6780 cc         1 W9Z       0.354800
     12 N6          -5.1170     2.6730    -2.2130 nd         1 W9Z      -0.063000
     13 C7          -6.8740     3.4620     1.3470 cd         1 W9Z       0.527800
     14 C8          -7.4750     3.6530     2.6900 cd         1 W9Z      -0.389800
     15 C9          -8.2820     4.7350     3.0950 cd         1 W9Z       0.361200
     16 C10         -7.3480     2.8120     3.7580 cc         1 W9Z      -0.056300
     17 N10         -4.5390     1.5600    -1.9230 nd         1 W9Z      -0.363700
     18 C12         -7.0960     4.4240     0.3390 cd         1 W9Z      -0.257300
     19 C13         -6.5500     4.2600    -0.8930 cc         1 W9Z      -0.016000
     20 C14         -5.7680     3.1170    -1.1510 cc         1 W9Z      -0.139300
     21 C15         -4.7930    -1.2460    -0.6900 c3         1 W9Z      -0.085100
     22 C16         -2.1090     0.0010     1.2240 ca         1 W9Z      -0.106000
     23 C17         -0.7040     0.0060     1.2290 ca         1 W9Z      -0.157300
     24 C18          0.0240     0.0050     2.4340 ca         1 W9Z      -0.078000
     25 C19          1.3880    -0.0010     2.3620 ca         1 W9Z      -0.260300
     26 C20          2.0190     0.0000     1.1200 ca         1 W9Z       0.430200
     27 H2          -0.2040     0.0010    -2.1540 ha         1 W9Z       0.153000
     28 H3          -2.6400     0.0040    -2.1030 ha         1 W9Z       0.160000
     29 H5          -4.6480     0.0030     1.0530 hc         1 W9Z       0.072700
     30 H9          -8.5730     5.5780     2.4780 h4         1 W9Z       0.054100
     31 H10         -6.7900     1.8840     3.7800 h4         1 W9Z       0.189000
     32 H11         -8.6930     1.8200     6.0570 h1         1 W9Z       0.060367
     33 H11A        -7.1920     2.6180     6.5480 h1         1 W9Z       0.060367
     34 H11B        -8.7420     3.4460     6.7510 h1         1 W9Z       0.060367
     35 H12         -7.7030     5.2960     0.5490 ha         1 W9Z       0.151000
     36 H13         -6.7170     4.9960    -1.6700 ha         1 W9Z       0.167000
     37 H15         -4.2770    -2.1190    -0.3100 hc         1 W9Z       0.047700
     38 H15A        -5.8580    -1.3530    -0.5190 hc         1 W9Z       0.047700
     39 H15B        -4.6060    -1.1500    -1.7520 hc         1 W9Z       0.047700
     40 H16         -2.6570     0.0010     2.1580 ha         1 W9Z       0.131000
     41 H18         -0.4830     0.0050     3.3910 ha         1 W9Z       0.136000
     42 H19          1.9780    -0.0010     3.2700 ha         1 W9Z       0.135000
     43 H20          3.1010    -0.0050     1.0790 h4         1 W9Z       0.021100
     44 C11         -8.1760     2.7700     6.1220 c3         1 W9Z       0.059600
@<TRIPOS>BOND
     1    23     1 ar
     2     2     1 ar
     3     1     3 ar
     4    26     2 ar
     5     3     5 ar
     6     3    27 1
     7     6     4 1
     8     4    11 1
     9     4    20 1
    10     7     5 ar
    11     5    28 1
    12    13     6 2
    13    22     7 ar
    14     7     9 1
    15     8    10 1
    16     8    15 2
    17     9    11 1
    18     9    21 1
    19     9    29 1
    20    44    10 1
    21    10    16 1
    22    11    17 2
    23    20    12 2
    24    17    12 1
    25    14    13 1
    26    13    18 1
    27    15    14 1
    28    16    14 2
    29    15    30 1
    30    16    31 1
    31    44    32 1
    32    44    33 1
    33    44    34 1
    34    18    19 2
    35    18    35 1
    36    19    20 1
    37    19    36 1
    38    21    37 1
    39    21    38 1
    40    21    39 1
    41    23    22 ar
    42    22    40 1
    43    24    23 ar
    44    25    24 ar
    45    24    41 1
    46    25    26 ar
    47    25    42 1
    48    26    43 1
@<TRIPOS>SUBSTRUCTURE
     1 W9Z         1 TEMP              0 ****  ****    0 ROOT
