@<TRIPOS>MOLECULE
W9Z
   44    46     1     0     0
SMALL
bcc


@<TRIPOS>ATOM
      1 C1         -0.7230   -0.8750    1.7040 c2        1 W9Z      0.041000
      2 N1          0.0120   -1.3990    2.7200 n2        1 W9Z     -0.160000
      3 C2         -0.1350   -0.8180    0.3240 c3        1 W9Z     -0.181000
      4 N2         -6.5090    1.9940   -0.3840 na        1 W9Z     -0.100000
      5 C3         -0.9520   -0.2610   -0.7360 c1        1 W9Z     -0.080000
      6 N3         -6.0910    3.1100    0.1870 n2        1 W9Z     -0.021000
      7 C4         -2.2750    0.1880   -0.4740 c2        1 W9Z     -0.269000
      8 N4         -5.3290    3.0030    3.1670 n2        1 W9Z     -0.301000
      9 C5         -3.1130    0.6810   -1.5120 c1        1 W9Z     -0.034000
     10 N5         -5.8010    4.2100    3.5700 n3        1 W9Z      0.010000
     11 C6         -5.8110    0.9590   -1.0470 c2        1 W9Z     -0.172000
     12 N6         -7.9570    0.3860   -1.1010 n2        1 W9Z     -0.060000
     13 C7         -7.0180    3.9020    0.7340 c2        1 W9Z     -0.082000
     14 C8         -6.5930    5.1890    1.3790 c3        1 W9Z     -0.132000
     15 C9         -4.8930    1.9600    2.8140 c1        1 W9Z      0.100000
     16 C10        -6.3440    5.1440    2.8280 c1        1 W9Z     -0.102000
     17 N10        -6.7340    0.0400   -1.4430 n2        1 W9Z     -0.125000
     18 C12        -8.4380    3.5990    0.7320 c2        1 W9Z     -0.186000
     19 C13        -8.8820    2.4480    0.1500 c2        1 W9Z     -0.027000
     20 C14        -7.9070    1.5810   -0.4440 c2        1 W9Z     -0.136000
     21 C15        -2.6570    0.8120   -2.8780 c3        1 W9Z     -0.261000
     22 C16        -2.8000    0.1500    0.8100 c2        1 W9Z      0.160000
     23 C17        -2.0420   -0.3730    1.9070 c2        1 W9Z     -0.201000
     24 C18        -2.5900   -0.4140    3.2080 c2        1 W9Z     -0.025000
     25 C19        -1.8340   -0.9490    4.2400 c2        1 W9Z     -0.213000
     26 C20        -0.5390   -1.4310    3.9420 c2        1 W9Z     -0.008000
     27 H2          0.8300   -0.2250    0.3500 hc        1 W9Z      0.174000
     28 H3          0.1640   -1.8610   -0.0030 hc        1 W9Z      0.174000
     29 H5         -4.6250    0.9270   -1.2270 h5        1 W9Z      0.334000
     30 H9         -7.4130    5.9460    1.2200 hc        1 W9Z      0.139000
     31 H10        -5.6640    5.6070    0.8910 hc        1 W9Z      0.139000
     32 H11        -6.0980    5.4980    5.2130 h1        1 W9Z      0.108000
     33 H11A       -6.2770    3.7120    5.5910 h1        1 W9Z      0.108000
     34 H11B       -4.6100    4.4320    5.3270 h1        1 W9Z      0.108000
     35 H12        -9.1250    4.3140    1.2040 ha        1 W9Z      0.151000
     36 H13        -9.9410    2.1560    0.1110 ha        1 W9Z      0.164000
     37 H15        -2.8780    1.8550   -3.2290 hc        1 W9Z      0.121000
     38 H15A       -3.2770    0.1150   -3.5080 hc        1 W9Z      0.121000
     39 H15B       -1.5730    0.5840   -3.0430 hc        1 W9Z      0.121000
     40 H16        -3.8210    0.5350    1.0220 ha        1 W9Z      0.181000
     41 H18        -3.6050   -0.0150    3.3810 ha        1 W9Z      0.171000
     42 H19        -2.2220   -1.0050    5.2660 ha        1 W9Z      0.154000
     43 H20         0.0940   -1.8680    4.7370 h4        1 W9Z      0.168000
     44 C11        -5.6860    4.4740    5.0170 c3        1 W9Z     -0.070000
@<TRIPOS>BOND
     1    1    2 1   
     2    1    3 1   
     3    1   23 1   
     4    2   26 1   
     5    3    5 1   
     6    3   27 1   
     7    3   28 1   
     8    4    6 1   
     9    4   11 1   
    10    4   20 1   
    11    5    7 1   
    12    6   13 1   
    13    7    9 1   
    14    7   22 1   
    15    8   10 1   
    16    8   15 1   
    17    9   21 1   
    18   10   16 1   
    19   10   44 1   
    20   11   17 1   
    21   11   29 1   
    22   12   17 1   
    23   12   20 1   
    24   13   14 1   
    25   13   18 1   
    26   14   16 1   
    27   14   30 1   
    28   14   31 1   
    29   18   19 1   
    30   18   35 1   
    31   19   20 1   
    32   19   36 1   
    33   21   37 1   
    34   21   38 1   
    35   21   39 1   
    36   22   23 1   
    37   22   40 1   
    38   23   24 1   
    39   24   25 1   
    40   24   41 1   
    41   25   26 1   
    42   25   42 1   
    43   26   43 1   
    44   32   44 1   
    45   33   44 1   
    46   34   44 1   
@<TRIPOS>SUBSTRUCTURE
     1 W9Z         1 TEMP              0 ****  ****    0 ROOT
