@<TRIPOS>MOLECULE
WA1
   23    24     1     0     0
SMALL
bcc


@<TRIPOS>ATOM
      1 OAA          0.0000     0.0000     0.0000 o          1 WA1      -0.650100
      2 CAB         -0.1850     0.2920     4.7690 ca         1 WA1      -0.108000
      3 CAC         -0.7380    -0.4030     3.7090 ca         1 WA1      -0.082000
      4 CAD          1.0540     0.8910     4.6370 ca         1 WA1      -0.082000
      5 CAE         -0.0520    -0.5010     2.5140 ca         1 WA1      -0.113500
      6 CAF          1.7440     0.7970     3.4440 ca         1 WA1      -0.113500
      7 CAG          1.7080    -0.0020    -3.6330 cc         1 WA1       0.210200
      8 NAH          0.8260    -0.0020    -4.6040 nc         1 WA1      -0.208000
      9 NAI         -0.4210     0.0030    -4.3060 nd         1 WA1      -0.154100
     10 NAJ          1.8890     0.0000     1.1680 ns         1 WA1      -0.032100
     11 NAK          1.8900    -0.0010    -1.1660 ns         1 WA1       0.033900
     12 SAL         -0.5140     0.0090    -2.6090 ss         1 WA1       0.058200
     13 CAM          1.2160     0.0000     0.0000 c          1 WA1       0.530100
     14 CAN          1.1920     0.0990     2.3780 ca         1 WA1      -0.092400
     15 CAO          1.1930    -0.0010    -2.3760 cd         1 WA1      -0.093800
     16 HAC         -1.7090    -0.8710     3.8160 ha         1 WA1       0.105500
     17 HAD          1.4840     1.4350     5.4690 ha         1 WA1       0.105500
     18 HAE         -0.4850    -1.0460     1.6840 ha         1 WA1       0.125000
     19 HAF          2.7150     1.2670     3.3400 ha         1 WA1       0.125000
     20 HAG          2.7750    -0.0060    -3.8210 h4         1 WA1       0.009100
     21 HNAJ         2.8860    -0.0910     1.1700 hn         1 WA1       0.161500
     22 HNAK         2.8910     0.0020    -1.1660 hn         1 WA1       0.164500
     23 HAB         -0.7240     0.3680     5.7060 ha         1 WA1       0.104000
@<TRIPOS>BOND
     1     1    13 2   
     2     2     3 ar  
     3     2     4 ar  
     4     2    23 1   
     5     3     5 ar  
     6     3    16 1   
     7     4     6 ar  
     8     4    17 1   
     9     5    14 ar  
    10     5    18 1   
    11     6    14 ar  
    12     6    19 1   
    13     7     8 1   
    14     7    15 2   
    15     7    20 1   
    16     8     9 2   
    17     9    12 1   
    18    10    13 1   
    19    10    14 1   
    20    10    21 1   
    21    11    13 1   
    22    11    15 1   
    23    11    22 1   
    24    12    15 1   
@<TRIPOS>SUBSTRUCTURE
     1 WA1         1 TEMP              0 ****  ****    0 ROOT
