@<TRIPOS>MOLECULE
WA2
   31    32     1     0     0
SMALL
bcc


@<TRIPOS>ATOM
      1 N1           0.0000     0.0000     0.0000 nb         1 WA2      -0.718000
      2 C2           1.3210     0.0000     0.0000 ca         1 WA2       0.665900
      3 N3           2.0270     0.0000     1.1090 nb         1 WA2      -0.625000
      4 C4           1.4220    -0.0010     2.3010 ca         1 WA2       0.571300
      5 C5           0.0180    -0.0010     2.3430 ca         1 WA2      -0.597800
      6 C6          -0.6870     0.0000     1.1390 ca         1 WA2       0.588200
      7 N6          -2.0730    -0.0000     1.1300 nu         1 WA2      -0.509900
      8 N7          -0.3230    -0.0020     3.6800 na         1 WA2       0.294700
      9 C8           0.8290    -0.0030     4.3860 cc         1 WA2       0.254700
     10 N9           1.8510    -0.0020     3.5770 nd         1 WA2      -0.589700
     11 CAA         -4.7830    -1.3040    -1.9500 c3         1 WA2      -0.002100
     12 CAE         -6.5620     0.1290    -0.9370 c3         1 WA2       0.227400
     13 CAF         -2.7970     0.0010    -0.1440 c3         1 WA2       0.161800
     14 CAG         -4.3030     0.0020     0.1260 c3         1 WA2      -0.037400
     15 CAP         -5.0600     0.0030    -1.2040 c3         1 WA2      -0.057700
     16 H2           1.8420    -0.0000    -0.9500 h5         1 WA2      -0.002900
     17 HN6         -2.5790     0.0390     1.9920 hn         1 WA2       0.282800
     18 H8           0.8940    -0.0050     5.4670 h5         1 WA2       0.028800
     19 HAAA        -4.2580    -1.9890    -1.2960 hc         1 WA2       0.011033
     20 HAAB        -5.7210    -1.7480    -2.2600 hc         1 WA2       0.011033
     21 HOAB        -8.1310     0.5660    -2.0210 ho         1 WA2       0.390000
     22 HAE         -6.9100    -0.7510    -0.4100 h1         1 WA2      -0.014800
     23 HAEA        -6.7490     1.0090    -0.3330 h1         1 WA2      -0.014800
     24 HAF         -2.5320     0.8860    -0.7100 h1         1 WA2       0.033700
     25 HAFA        -2.5320    -0.8830    -0.7110 h1         1 WA2       0.033700
     26 HAG         -4.5690    -0.8830     0.6910 hc         1 WA2       0.015200
     27 HAGA        -4.5680     0.8860     0.6930 hc         1 WA2       0.015200
     28 HAP         -4.7290     0.8410    -1.8060 hc         1 WA2       0.041700
     29 HN7         -1.2510    -0.0020     4.0560 hn         1 WA2       0.121700
     30 HAA         -4.1740    -1.0990    -2.8220 hc         1 WA2       0.011033
     31 OAB         -7.2580     0.2470    -2.1790 oh         1 WA2      -0.589800
@<TRIPOS>BOND
     1     1     2 ar  
     2     1     6 ar  
     3     2     3 ar  
     4     2    16 1   
     5     3     4 ar  
     6     4     5 ar  
     7     4    10 1   
     8     5     6 ar  
     9     5     8 1   
    10     6     7 1   
    11     7    13 1   
    12     7    17 1   
    13     8     9 1   
    14     8    29 1   
    15     9    10 2   
    16     9    18 1   
    17    11    15 1   
    18    11    19 1   
    19    11    20 1   
    20    11    30 1   
    21    12    15 1   
    22    12    22 1   
    23    12    23 1   
    24    12    31 1   
    25    13    14 1   
    26    13    24 1   
    27    13    25 1   
    28    14    15 1   
    29    14    26 1   
    30    14    27 1   
    31    15    28 1   
    32    21    31 1   
@<TRIPOS>SUBSTRUCTURE
     1 WA2         1 TEMP              0 ****  ****    0 ROOT
