@<TRIPOS>MOLECULE
WA5
   37    39     1     0     0
SMALL
bcc


@<TRIPOS>ATOM
      1 NAA          0.0000     0.0000     0.0000 n2         1 WA5      -0.603100
      2 OAC          0.1460     0.8130     4.4550 o          1 WA5      -0.658500
      3 OAD          2.6370     0.0520     4.6770 oh         1 WA5      -0.425100
      4 CAG          4.3040     0.0000     0.0000 ca         1 WA5      -0.245300
      5 CAH          4.8630     0.0000     1.2660 ca         1 WA5       0.435200
      6 CAI         -0.4860     6.9070     5.9260 ca         1 WA5      -0.144000
      7 CAJ          0.0890     6.2440     4.8590 ca         1 WA5      -0.024000
      8 CAK          2.9310     0.1480    -0.1350 ca         1 WA5       0.012000
      9 CAL         -2.6640     6.4860     5.0150 ca         1 WA5      -0.168000
     10 CAM         -0.0920     4.9930     2.6560 c3         1 WA5       0.125300
     11 NAN          4.1220     0.1260     2.3490 nb         1 WA5      -0.585000
     12 NAO         -0.2520     3.5500     2.8520 ns         1 WA5      -0.186900
     13 CAP          0.2390     2.6880     1.9390 c          1 WA5       0.580100
     14 CAQ         -1.8640     7.0270     6.0070 ca         1 WA5       0.142900
     15 CAR          0.7090     0.4600     0.9800 ce         1 WA5       0.438900
     16 CAS         -2.0870     5.8170     3.9500 ca         1 WA5       0.144900
     17 CAT         -0.7090     5.7000     3.8700 ca         1 WA5      -0.173300
     18 CAU          0.0750     1.2040     2.1400 c3         1 WA5      -0.262000
     19 CAV          0.7670     0.7860     3.4130 c          1 WA5       0.602500
     20 CAW          2.1750     0.2880     1.0250 ca         1 WA5      -0.266200
     21 CAX          2.8070     0.2590     2.2810 ca         1 WA5       0.354200
     22 NAY          2.0440     0.3760     3.4310 n          1 WA5       0.103200
     23 HNAA        -0.9920     0.1310    -0.0040 hn         1 WA5       0.322400
     24 HOAD         2.4480    -0.8470     4.8900 ho         1 WA5       0.402000
     25 HAG          4.9320    -0.1040    -0.8760 ha         1 WA5       0.119000
     26 HAH          5.9350    -0.1150     1.3700 h4         1 WA5      -0.018900
     27 HAI          0.1410     7.3330     6.7000 ha         1 WA5       0.127000
     28 HAJ          1.1660     6.1510     4.7960 ha         1 WA5       0.118000
     29 HAK          2.4630     0.1520    -1.1120 ha         1 WA5       0.129000
     30 HAL         -3.7380     6.6210     5.0530 ha         1 WA5       0.138000
     31 HAM          0.9620     5.2370     2.6060 h1         1 WA5       0.035200
     32 HAMA        -0.5750     5.2880     1.7320 h1         1 WA5       0.035200
     33 HNAO        -0.7380     3.2050     3.6560 hn         1 WA5       0.197500
     34 HAU         -0.9770     0.9530     2.1990 hc         1 WA5       0.073700
     35 OAB          0.8110     3.1080     0.9550 o          1 WA5      -0.635100
     36 FAE         -2.4260     7.6710     7.0530 f          1 WA5      -0.120900
     37 FAF         -2.8670     5.2810     2.9870 f          1 WA5      -0.121900
@<TRIPOS>BOND
     1     1    15 2   
     2     1    23 1   
     3     2    19 2   
     4     3    22 1   
     5     3    24 1   
     6     4     5 ar  
     7     4     8 ar  
     8     4    25 1   
     9     5    11 ar  
    10     5    26 1   
    11     6     7 ar  
    12     6    14 ar  
    13     6    27 1   
    14     7    17 ar  
    15     7    28 1   
    16     8    20 ar  
    17     8    29 1   
    18     9    14 ar  
    19     9    16 ar  
    20     9    30 1   
    21    10    12 1   
    22    10    17 1   
    23    10    31 1   
    24    10    32 1   
    25    11    21 ar  
    26    12    13 1   
    27    12    33 1   
    28    13    18 1   
    29    13    35 2   
    30    14    36 1   
    31    15    18 1   
    32    15    20 1   
    33    16    17 ar  
    34    16    37 1   
    35    18    19 1   
    36    18    34 1   
    37    19    22 1   
    38    20    21 ar  
    39    21    22 1   
@<TRIPOS>SUBSTRUCTURE
     1 WA5         1 TEMP              0 ****  ****    0 ROOT
