@<TRIPOS>MOLECULE
molecule
   37    39     1     0     0
SMALL
bcc


@<TRIPOS>ATOM
      1 NAA          0.0000     0.0000     0.0000 n2         1 WA5      -0.758100
      2 OAC          0.1460     0.8130     4.4550 o          1 WA5      -0.603500
      3 OAD          2.6370     0.0520     4.6770 oh         1 WA5      -0.335100
      4 CAG          4.3040     0.0000     0.0000 ca         1 WA5      -0.286300
      5 CAH          4.8630     0.0000     1.2660 ca         1 WA5       0.463200
      6 CAI         -0.4860     6.9070     5.9260 ca         1 WA5      -0.183000
      7 CAJ          0.0890     6.2440     4.8590 ca         1 WA5      -0.056000
      8 CAK          2.9310     0.1480    -0.1350 ca         1 WA5      -0.009000
      9 CAL         -2.6640     6.4860     5.0150 ca         1 WA5      -0.213000
     10 CAM         -0.0920     4.9930     2.6560 c3         1 WA5       0.172300
     11 NAN          4.1220     0.1260     2.3490 nb         1 WA5      -0.707000
     12 NAO         -0.2520     3.5500     2.8520 ns         1 WA5      -0.574900
     13 CAP          0.2390     2.6880     1.9390 c          1 WA5       0.670100
     14 CAQ         -1.8640     7.0270     6.0070 ca         1 WA5       0.170900
     15 CAR          0.7090     0.4600     0.9800 ce         1 WA5       0.505900
     16 CAS         -2.0870     5.8170     3.9500 ca         1 WA5       0.170900
     17 CAT         -0.7090     5.7000     3.8700 ca         1 WA5      -0.175300
     18 CAU          0.0750     1.2040     2.1400 c3         1 WA5      -0.308000
     19 CAV          0.7670     0.7860     3.4130 c          1 WA5       0.718500
     20 CAW          2.1750     0.2880     1.0250 ca         1 WA5      -0.276200
     21 CAX          2.8070     0.2590     2.2810 ca         1 WA5       0.566200
     22 NAY          2.0440     0.3760     3.4310 n          1 WA5      -0.316800
     23 HNAA        -0.9920     0.1310    -0.0040 hn         1 WA5       0.407400
     24 HOAD         2.4480    -0.8470     4.8900 ho         1 WA5       0.408000
     25 HAG          4.9320    -0.1040    -0.8760 ha         1 WA5       0.148000
     26 HAH          5.9350    -0.1150     1.3700 h4         1 WA5       0.030100
     27 HAI          0.1410     7.3330     6.7000 ha         1 WA5       0.155000
     28 HAJ          1.1660     6.1510     4.7960 ha         1 WA5       0.151000
     29 HAK          2.4630     0.1520    -1.1120 ha         1 WA5       0.167000
     30 HAL         -3.7380     6.6210     5.0530 ha         1 WA5       0.164000
     31 HAM          0.9620     5.2370     2.6060 h1         1 WA5       0.067700
     32 HAMA        -0.5750     5.2880     1.7320 h1         1 WA5       0.067700
     33 HNAO        -0.7380     3.2050     3.6560 hn         1 WA5       0.335500
     34 HAU         -0.9770     0.9530     2.1990 hc         1 WA5       0.112700
     35 OAB          0.8110     3.1080     0.9550 o          1 WA5      -0.587100
     36 FAE         -2.4260     7.6710     7.0530 f          1 WA5      -0.129900
     37 FAF         -2.8670     5.2810     2.9870 f          1 WA5      -0.129900
@<TRIPOS>BOND
     1     1    15 2
     2     1    23 1
     3    35    13 2
     4    19     2 2
     5    22     3 1
     6     3    24 1
     7    14    36 1
     8    16    37 1
     9     8     4 ar
    10     4     5 ar
    11     4    25 1
    12     5    11 ar
    13     5    26 1
    14     7     6 ar
    15     6    14 ar
    16     6    27 1
    17     7    17 ar
    18     7    28 1
    19     8    20 ar
    20     8    29 1
    21    14     9 ar
    22    16     9 ar
    23     9    30 1
    24    10    17 1
    25    10    12 1
    26    10    31 1
    27    10    32 1
    28    21    11 ar
    29    13    12 1
    30    12    33 1
    31    13    18 1
    32    15    18 1
    33    15    20 1
    34    17    16 ar
    35    18    19 1
    36    18    34 1
    37    19    22 1
    38    20    21 ar
    39    21    22 1
@<TRIPOS>SUBSTRUCTURE
     1 WA5         1 TEMP              0 ****  ****    0 ROOT
