@<TRIPOS>MOLECULE
molecule
   57    60     1     0     0
SMALL
bcc


@<TRIPOS>ATOM
      1 C1           0.0000     0.0000     0.0000 ca         1 WAC      -0.114000
      2 C2           1.3840     0.0000     0.0000 ca         1 WAC      -0.139000
      3 C3           2.0200     0.0000     1.2380 ca         1 WAC      -0.060200
      4 C4           1.2650     0.0020     2.4390 ca         1 WAC      -0.042800
      5 C5          -0.1300     0.0030     2.4160 ca         1 WAC      -0.072000
      6 C6          -0.7360     0.0020     1.1720 ca         1 WAC      -0.149000
      7 N7           3.3490     0.0000     1.5770 na         1 WAC      -0.029400
      8 C8           3.4950    -0.0060     2.9110 cc         1 WAC      -0.006300
      9 C9           2.2400     0.0000     3.5130 cd         1 WAC      -0.248400
     10 C10          4.7650    -0.0270     3.7290 c3         1 WAC       0.239700
     11 N11          4.4640    -0.6240     5.0390 n3         1 WAC      -0.719600
     12 C12          3.3730     0.0650     5.7400 c3         1 WAC       0.067800
     13 C13          2.0990     0.0020     4.9230 c          1 WAC       0.620300
     14 C16          5.8050    -0.8850     3.0030 c3         1 WAC      -0.095400
     15 C17          7.0770    -0.9710     3.8500 c3         1 WAC      -0.083400
     16 C18          6.7240    -1.5590     5.2200 c3         1 WAC      -0.080400
     17 C19          5.6650    -0.6790     5.8850 c3         1 WAC       0.167800
     18 C29          4.4550     0.0050     0.6160 c3         1 WAC       0.035300
     19 C30          4.8110    -1.4350     0.2400 c3         1 WAC      -0.126400
     20 C33          5.9650    -1.4300    -0.7630 c3         1 WAC       0.233800
     21 N36          6.3060    -2.8080    -1.1230 n7         1 WAC      -0.914100
     22 S39          7.2500    -3.1090    -2.4500 s6         1 WAC       1.333900
     23 C40          8.8580    -2.3780    -2.0370 c3         1 WAC      -0.212900
     24 C41          9.4140    -3.0450    -0.7770 c3         1 WAC      -0.068100
     25 C42          9.8300    -2.5920    -3.1980 c3         1 WAC      -0.068100
     26 O44          7.3460    -4.5250    -2.4980 o          1 WAC      -0.626300
     27 O45          6.6260    -2.3800    -3.4980 o          1 WAC      -0.626300
     28 O46          1.0080    -0.0440     5.4520 o          1 WAC      -0.541100
     29 H1          -0.5240    -0.0010    -0.9480 ha         1 WAC       0.129000
     30 H2           1.9480    -0.0010    -0.9250 ha         1 WAC       0.132000
     31 H5          -0.7110     0.0040     3.3300 ha         1 WAC       0.158000
     32 H6          -1.8180     0.0020     1.1140 ha         1 WAC       0.130000
     33 H10          5.1400     0.9810     3.8580 h1         1 WAC       0.045700
     34 H121         3.2060    -0.4120     6.6980 h1         1 WAC       0.061200
     35 H122         3.6470     1.1020     5.8930 h1         1 WAC       0.061200
     36 H161         5.4070    -1.8800     2.8500 hc         1 WAC       0.057700
     37 H162         6.0400    -0.4330     2.0470 hc         1 WAC       0.057700
     38 H171         7.7970    -1.6110     3.3560 hc         1 WAC       0.043200
     39 H172         7.4930     0.0210     3.9790 hc         1 WAC       0.043200
     40 H181         6.3320    -2.5610     5.0930 hc         1 WAC       0.054200
     41 H182         7.6110    -1.5870     5.8400 hc         1 WAC       0.054200
     42 H191         6.0590     0.3220     6.0130 h1         1 WAC       0.039200
     43 H192         5.4050    -1.0960     6.8500 h1         1 WAC       0.039200
     44 H291         4.1580     0.5480    -0.2730 h1         1 WAC       0.068200
     45 H292         5.3180     0.4860     1.0610 h1         1 WAC       0.068200
     46 H301         5.1080    -1.9780     1.1290 hc         1 WAC       0.071200
     47 H302         3.9480    -1.9150    -0.2050 hc         1 WAC       0.071200
     48 H331         5.6690    -0.8870    -1.6530 h1         1 WAC       0.044700
     49 H332         6.8280    -0.9490    -0.3180 h1         1 WAC       0.044700
     50 H36          5.9320    -3.5700    -0.5930 hn         1 WAC       0.459800
     51 H40          8.7370    -1.3160    -1.8590 h1         1 WAC       0.094700
     52 H411         8.5930    -3.3920    -0.1600 hc         1 WAC       0.049033
     53 H412        10.0350    -3.8870    -1.0580 hc         1 WAC       0.049033
     54 H413        10.0060    -2.3290    -0.2200 hc         1 WAC       0.049033
     55 H421        10.8120    -2.2270    -2.9200 hc         1 WAC       0.049033
     56 H422         9.8900    -3.6480    -3.4300 hc         1 WAC       0.049033
     57 H423         9.4780    -2.0510    -4.0680 hc         1 WAC       0.049033
@<TRIPOS>BOND
     1     1     2 ar
     2     1     6 ar
     3     1    29 1
     4     2     3 ar
     5     2    30 1
     6     3     4 ar
     7     3     7 1
     8     4     5 ar
     9     4     9 1
    10     5     6 ar
    11     5    31 1
    12     6    32 1
    13     7     8 1
    14     7    18 1
    15     8     9 2
    16     8    10 1
    17     9    13 1
    18    10    11 1
    19    10    14 1
    20    10    33 1
    21    11    12 1
    22    11    17 1
    23    12    13 1
    24    12    34 1
    25    12    35 1
    26    13    28 2
    27    14    15 1
    28    14    36 1
    29    14    37 1
    30    15    16 1
    31    15    38 1
    32    15    39 1
    33    16    17 1
    34    16    40 1
    35    16    41 1
    36    17    42 1
    37    17    43 1
    38    18    19 1
    39    18    44 1
    40    18    45 1
    41    19    20 1
    42    19    46 1
    43    19    47 1
    44    20    21 1
    45    20    48 1
    46    20    49 1
    47    21    22 1
    48    21    50 1
    49    22    23 1
    50    22    26 2
    51    22    27 2
    52    23    24 1
    53    23    25 1
    54    23    51 1
    55    24    52 1
    56    24    53 1
    57    24    54 1
    58    25    55 1
    59    25    56 1
    60    25    57 1
@<TRIPOS>SUBSTRUCTURE
     1 WAC         1 TEMP              0 ****  ****    0 ROOT
