@<TRIPOS>MOLECULE
molecule
   57    60     1     0     0
SMALL
bcc


@<TRIPOS>ATOM
      1 C1           0.0000     0.0000     0.0000 cp         1 WAI      -0.091500
      2 C2           1.3940     0.0000     0.0000 ca         1 WAI      -0.212300
      3 C3           2.0680     0.0000     1.2150 ca         1 WAI       0.566200
      4 N4           1.3990    -0.0090     2.3580 nb         1 WAI      -0.730000
      5 C5           0.0800    -0.0140     2.3950 ca         1 WAI       0.442200
      6 C6          -0.6620    -0.0100     1.2330 ca         1 WAI      -0.240300
      7 C7          -0.7610     0.0050    -1.2730 cp         1 WAI       0.543800
      8 C8          -1.9180     0.7740    -1.4040 ca         1 WAI      -0.422600
      9 C9          -2.5950     0.7470    -2.6110 ca         1 WAI       0.502200
     10 N10         -2.1300    -0.0010    -3.5970 nb         1 WAI      -0.776000
     11 C11         -1.0280    -0.7220    -3.4450 ca         1 WAI       0.942900
     12 N12         -0.3540    -0.7280    -2.3070 nb         1 WAI      -0.789000
     13 N13         -0.5760    -1.4930    -4.5020 nu         1 WAI      -0.749300
     14 C14         -1.2090    -1.4150    -5.7460 ca         1 WAI       0.155600
     15 C15         -1.2980    -2.5420    -6.5530 ca         1 WAI      -0.153000
     16 C16         -1.9300    -2.4640    -7.7790 ca         1 WAI       0.044400
     17 C17         -2.4650    -1.2620    -8.2070 ca         1 WAI      -0.087300
     18 C18         -2.3780    -0.1390    -7.4060 ca         1 WAI      -0.104000
     19 C19         -1.7510    -0.2120    -6.1770 ca         1 WAI      -0.124000
     20 C20         -3.1490    -1.1780    -9.5480 c3         1 WAI      -0.047800
     21 Cl24        -2.0430    -3.8710    -8.7890 cl         1 WAI      -0.100400
     22 N34          3.4580     0.0040     1.2320 nh         1 WAI      -0.654300
     23 C35          3.8820     1.2920     0.6740 c3         1 WAI       0.150800
     24 C36          5.4020     1.4200     0.7740 c3         1 WAI       0.124300
     25 N37          5.8070     1.4140     2.1850 n3         1 WAI      -0.660600
     26 C38          5.3830     0.1240     2.7430 c3         1 WAI       0.124300
     27 C39          3.8620    -0.0030     2.6430 c3         1 WAI       0.150800
     28 C48          7.2760     1.4190     2.2020 c3         1 WAI       0.111800
     29 C49          7.7890     2.7410     1.6300 c3         1 WAI       0.085800
     30 N52          9.2580     2.7460     1.6470 nz         1 WAI      -0.810600
     31 H2           1.9440     0.0070    -0.9330 ha         1 WAI       0.159000
     32 H5          -0.4270    -0.0220     3.3520 h4         1 WAI       0.034100
     33 H6          -1.7450    -0.0120     1.2730 ha         1 WAI       0.153000
     34 H8          -2.2790     1.3790    -0.5800 ha         1 WAI       0.150000
     35 H9          -3.4970     1.3320    -2.7460 h4         1 WAI       0.038100
     36 H13          0.2140    -2.0950    -4.3800 hn         1 WAI       0.468800
     37 H15         -0.8790    -3.4830    -6.2180 ha         1 WAI       0.145000
     38 H18         -2.7990     0.8010    -7.7430 ha         1 WAI       0.141000
     39 H19         -1.6840     0.6690    -5.5500 ha         1 WAI       0.155000
     40 H201        -2.4480    -1.4480   -10.3280 hc         1 WAI       0.050700
     41 H202        -3.9910    -1.8600    -9.5670 hc         1 WAI       0.050700
     42 H203        -3.5000    -0.1660    -9.7110 hc         1 WAI       0.050700
     43 H351         3.5840     1.3490    -0.3660 h1         1 WAI       0.072450
     44 H352         3.4160     2.0960     1.2320 h1         1 WAI       0.072450
     45 H361         5.8670     0.5860     0.2630 h1         1 WAI       0.048450
     46 H362         5.7150     2.3500     0.3150 h1         1 WAI       0.048450
     47 H381         5.6810     0.0680     3.7830 h1         1 WAI       0.048450
     48 H382         5.8480    -0.6790     2.1850 h1         1 WAI       0.048450
     49 H391         3.5500    -0.9340     3.1010 h1         1 WAI       0.072450
     50 H392         3.3980     0.8310     3.1550 h1         1 WAI       0.072450
     51 H481         7.6250     1.3070     3.2220 h1         1 WAI       0.056700
     52 H482         7.6470     0.5980     1.6010 h1         1 WAI       0.056700
     53 H491         7.4400     2.8540     0.6110 hx         1 WAI       0.120700
     54 H492         7.4190     3.5630     2.2310 hx         1 WAI       0.120700
     55 H521         9.6000     1.9560     1.1370 hn         1 WAI       0.457467
     56 H522         9.5810     2.6980     2.5930 hn         1 WAI       0.457467
     57 H523         9.5930     3.5880     1.2230 hn         1 WAI       0.457467
@<TRIPOS>BOND
     1     1     2 ar
     2     1     6 ar
     3     1     7 1
     4     2     3 ar
     5     2    31 1
     6     3     4 ar
     7     3    22 1
     8     4     5 ar
     9     5     6 ar
    10     5    32 1
    11     6    33 1
    12     7     8 ar
    13     7    12 ar
    14     8     9 ar
    15     8    34 1
    16     9    10 ar
    17     9    35 1
    18    10    11 ar
    19    11    12 ar
    20    11    13 1
    21    13    14 1
    22    13    36 1
    23    14    15 ar
    24    14    19 ar
    25    15    16 ar
    26    15    37 1
    27    16    17 ar
    28    16    21 1
    29    17    18 ar
    30    17    20 1
    31    18    19 ar
    32    18    38 1
    33    19    39 1
    34    20    40 1
    35    20    41 1
    36    20    42 1
    37    22    23 1
    38    22    27 1
    39    23    24 1
    40    23    43 1
    41    23    44 1
    42    24    25 1
    43    24    45 1
    44    24    46 1
    45    25    26 1
    46    25    28 1
    47    26    27 1
    48    26    47 1
    49    26    48 1
    50    27    49 1
    51    27    50 1
    52    28    29 1
    53    28    51 1
    54    28    52 1
    55    29    30 1
    56    29    53 1
    57    29    54 1
    58    30    55 1
    59    30    56 1
    60    57    30 1
@<TRIPOS>SUBSTRUCTURE
     1 WAI         1 TEMP              0 ****  ****    0 ROOT
