@<TRIPOS>MOLECULE
molecule
   46    48     1     0     0
SMALL
bcc


@<TRIPOS>ATOM
      1 C26          0.0000     0.0000     0.0000 c3         1 WAN      -0.092100
      2 C25          1.5300     0.0000     0.0000 c3         1 WAN      -0.082400
      3 C24          2.0400     0.0000     1.4430 c3         1 WAN      -0.098700
      4 C23          3.5470     0.0010     1.4430 cc         1 WAN       0.377600
      5 C18          4.3670     1.1460     1.4440 cc         1 WAN      -0.018900
      6 N17          4.1140     2.4700     1.4440 nc         1 WAN      -0.550100
      7 N22          4.3080    -1.0610     1.4480 nd         1 WAN      -0.456800
      8 N20          5.6530    -0.6700     1.4470 na         1 WAN       0.121400
      9 C21          6.8110    -1.5670     1.4500 c3         1 WAN       0.061600
     10 C19          5.6950     0.6980     1.4430 cd         1 WAN      -0.175900
     11 C15          6.7360     1.6520     1.4450 c          1 WAN       0.726100
     12 O16          7.9030     1.3010     1.4440 o          1 WAN      -0.627500
     13 N14          6.4080     2.9640     1.4450 ns         1 WAN      -0.460400
     14 C13          5.0930     3.3480     1.4430 cd         1 WAN       0.493500
     15 C12          4.7680     4.7810     1.4430 cd         1 WAN      -0.228900
     16 C6           5.7650     5.8270     1.4420 cd         1 WAN       0.049000
     17 C5           5.2430     7.0460     1.4420 cc         1 WAN      -0.376600
     18 S2           6.1810     8.5370     1.4420 sy         1 WAN       1.270200
     19 O3           5.3360     9.5420     1.9860 o          1 WAN      -0.515300
     20 O4           7.4520     8.2130     1.9850 o          1 WAN      -0.515300
     21 N1           6.4410     8.9510    -0.1410 nz         1 WAN      -0.807500
     22 S7           3.4900     6.9700     1.4430 ss         1 WAN      -0.006800
     23 C8           3.4900     5.2650     1.4370 cc         1 WAN       0.290000
     24 O9           2.3740     4.4950     1.4310 os         1 WAN      -0.210900
     25 C10          1.1170     5.1740     1.4250 c3         1 WAN       0.104400
     26 C11         -0.0180     4.1470     1.4190 c3         1 WAN      -0.087100
     27 H26         -0.3610    -0.2200    -0.9970 hc         1 WAN       0.036033
     28 H26A        -0.3610     0.9740     0.3080 hc         1 WAN       0.036033
     29 H26B        -0.3610    -0.7540     0.6890 hc         1 WAN       0.036033
     30 H25          1.8910    -0.8850    -0.5100 hc         1 WAN       0.049200
     31 H25A         1.8910     0.8840    -0.5110 hc         1 WAN       0.049200
     32 H24          1.6780     0.8840     1.9540 hc         1 WAN       0.065200
     33 H24A         1.6790    -0.8850     1.9530 hc         1 WAN       0.065200
     34 H21          7.4240    -1.3610     2.3190 h1         1 WAN       0.070367
     35 H21A         6.4720    -2.5950     1.4830 h1         1 WAN       0.070367
     36 H21B         7.3940    -1.4070     0.5510 h1         1 WAN       0.070367
     37 HN14         7.1300     3.6580     1.4450 hn         1 WAN       0.330500
     38 H6           6.8310     5.6350     1.4420 ha         1 WAN       0.171000
     39 HN1          5.5620     9.0420    -0.6110 hn         1 WAN       0.492467
     40 HN1A         6.9860     8.2400    -0.5860 hn         1 WAN       0.492467
     41 H10          1.0370     5.7940     2.3100 h1         1 WAN       0.046700
     42 H10A         1.0460     5.7950     0.5410 h1         1 WAN       0.046700
     43 H11         -0.0420     3.6420     0.4610 hc         1 WAN       0.065367
     44 H11A         0.1480     3.4210     2.2060 hc         1 WAN       0.065367
     45 H11B        -0.9620     4.6520     1.5860 hc         1 WAN       0.065367
     46 H13          6.9420     9.8170    -0.1810 hn         1 WAN       0.492467
@<TRIPOS>BOND
     1     1     2 1
     2     2     3 1
     3     3     4 1
     4     4     5 1
     5     4     7 2
     6     5     6 1
     7     5    10 2
     8     6    14 2
     9     7     8 1
    10     8     9 1
    11     8    10 1
    12    10    11 1
    13    11    12 2
    14    11    13 1
    15    13    14 1
    16    14    15 1
    17    15    16 1
    18    15    23 2
    19    16    17 2
    20    17    18 1
    21    17    22 1
    22    18    19 2
    23    18    20 2
    24    18    21 1
    25    22    23 1
    26    23    24 1
    27    24    25 1
    28    25    26 1
    29     1    27 1
    30     1    28 1
    31     1    29 1
    32     2    30 1
    33     2    31 1
    34     3    32 1
    35     3    33 1
    36     9    34 1
    37     9    35 1
    38     9    36 1
    39    13    37 1
    40    16    38 1
    41    21    39 1
    42    21    40 1
    43    25    41 1
    44    25    42 1
    45    26    43 1
    46    26    44 1
    47    26    45 1
    48    46    21 1
@<TRIPOS>SUBSTRUCTURE
     1 WAN         1 TEMP              0 ****  ****    0 ROOT
