@<TRIPOS>MOLECULE
WAN
   46    48     1     0     0
SMALL
bcc


@<TRIPOS>ATOM
      1 C26          0.0000     0.0000     0.0000 c3         1 WAN       0.006900
      2 C25          1.5300     0.0000     0.0000 c3         1 WAN      -0.026400
      3 C24          2.0400     0.0000     1.4430 c3         1 WAN      -0.041700
      4 C23          3.5470     0.0010     1.4430 cc         1 WAN       0.402600
      5 C18          4.3670     1.1460     1.4440 cc         1 WAN      -0.085900
      6 N17          4.1140     2.4700     1.4440 nc         1 WAN      -0.411100
      7 N22          4.3080    -1.0610     1.4480 nd         1 WAN      -0.599800
      8 N20          5.6530    -0.6700     1.4470 na         1 WAN       0.580400
      9 C21          6.8110    -1.5670     1.4500 c3         1 WAN       0.007600
     10 C19          5.6950     0.6980     1.4430 cd         1 WAN      -0.348900
     11 C15          6.7360     1.6520     1.4450 c          1 WAN       0.643100
     12 O16          7.9030     1.3010     1.4440 o          1 WAN      -0.676500
     13 N14          6.4080     2.9640     1.4450 ns         1 WAN       0.004600
     14 C13          5.0930     3.3480     1.4430 cd         1 WAN       0.279500
     15 C12          4.7680     4.7810     1.4430 cd         1 WAN      -0.261900
     16 C6           5.7650     5.8270     1.4420 cd         1 WAN       0.102000
     17 C5           5.2430     7.0460     1.4420 cc         1 WAN      -0.210600
     18 S2           6.1810     8.5370     1.4420 sy         1 WAN       0.974200
     19 O3           5.3360     9.5420     1.9860 o          1 WAN      -0.487300
     20 O4           7.4520     8.2130     1.9850 o          1 WAN      -0.487300
     21 N1           6.4410     8.9510    -0.1410 nz         1 WAN      -0.128500
     22 S7           3.4900     6.9700     1.4430 ss         1 WAN      -0.144800
     23 C8           3.4900     5.2650     1.4370 cc         1 WAN       0.354000
     24 O9           2.3740     4.4950     1.4310 os         1 WAN      -0.191900
     25 C10          1.1170     5.1740     1.4250 c3         1 WAN       0.178400
     26 C11         -0.0180     4.1470     1.4190 c3         1 WAN       0.005900
     27 H26         -0.3610    -0.2200    -0.9970 hc         1 WAN       0.002367
     28 H26A        -0.3610     0.9740     0.3080 hc         1 WAN       0.002367
     29 H26B        -0.3610    -0.7540     0.6890 hc         1 WAN       0.002367
     30 H25          1.8910    -0.8850    -0.5100 hc         1 WAN       0.016700
     31 H25A         1.8910     0.8840    -0.5110 hc         1 WAN       0.016700
     32 H24          1.6780     0.8840     1.9540 hc         1 WAN       0.030200
     33 H24A         1.6790    -0.8850     1.9530 hc         1 WAN       0.030200
     34 H21          7.4240    -1.3610     2.3190 h1         1 WAN       0.037700
     35 H21A         6.4720    -2.5950     1.4830 h1         1 WAN       0.037700
     36 H21B         7.3940    -1.4070     0.5510 h1         1 WAN       0.037700
     37 HN14         7.1300     3.6580     1.4450 hn         1 WAN       0.174500
     38 H6           6.8310     5.6350     1.4420 ha         1 WAN       0.135000
     39 HN1          5.5620     9.0420    -0.6110 hn         1 WAN       0.314133
     40 HN1A         6.9860     8.2400    -0.5860 hn         1 WAN       0.314133
     41 H10          1.0370     5.7940     2.3100 h1         1 WAN       0.011700
     42 H10A         1.0460     5.7950     0.5410 h1         1 WAN       0.011700
     43 H11         -0.0420     3.6420     0.4610 hc         1 WAN       0.024700
     44 H11A         0.1480     3.4210     2.2060 hc         1 WAN       0.024700
     45 H11B        -0.9620     4.6520     1.5860 hc         1 WAN       0.024700
     46 H13          6.9420     9.8170    -0.1810 hn         1 WAN       0.314133
@<TRIPOS>BOND
     1     1     2 1   
     2     1    27 1   
     3     1    28 1   
     4     1    29 1   
     5     2     3 1   
     6     2    30 1   
     7     2    31 1   
     8     3     4 1   
     9     3    32 1   
    10     3    33 1   
    11     4     5 1   
    12     4     7 2   
    13     5     6 1   
    14     5    10 2   
    15     6    14 2   
    16     7     8 1   
    17     8     9 1   
    18     8    10 1   
    19     9    34 1   
    20     9    35 1   
    21     9    36 1   
    22    10    11 1   
    23    11    12 2   
    24    11    13 1   
    25    13    14 1   
    26    13    37 1   
    27    14    15 1   
    28    15    16 1   
    29    15    23 2   
    30    16    17 2   
    31    16    38 1   
    32    17    18 1   
    33    17    22 1   
    34    18    19 2   
    35    18    20 2   
    36    18    21 1   
    37    21    39 1   
    38    21    40 1   
    39    21    46 1   
    40    22    23 1   
    41    23    24 1   
    42    24    25 1   
    43    25    26 1   
    44    25    41 1   
    45    25    42 1   
    46    26    43 1   
    47    26    44 1   
    48    26    45 1   
@<TRIPOS>SUBSTRUCTURE
     1 WAN         1 TEMP              0 ****  ****    0 ROOT
