@<TRIPOS>MOLECULE
molecule
   55    57     1     0     0
SMALL
bcc


@<TRIPOS>ATOM
      1 N1           0.0000     0.0000     0.0000 nb         1 WAQ      -0.826000
      2 C2           1.3200     0.0000     0.0000 ca         1 WAQ       0.710900
      3 N3           2.0270     0.0000     1.1110 nb         1 WAQ      -0.764000
      4 C4           1.4260     0.0010     2.2970 ca         1 WAQ       0.462800
      5 C5           0.0220     0.0020     2.3500 ca         1 WAQ      -0.191200
      6 C6          -0.6880     0.0020     1.1370 ca         1 WAQ       0.772200
      7 N6          -2.0720     0.0020     1.1270 nv         1 WAQ      -1.016500
      8 N7          -0.3280     0.0030     3.6590 nc         1 WAQ      -0.605100
      9 C8           0.7460     0.0030     4.3940 cd         1 WAQ       0.455700
     10 N9           1.8540     0.0020     3.5990 na         1 WAQ      -0.245000
     11 C1'          3.2470     0.0010     4.0540 c3         1 WAQ       0.251800
     12 C2'          3.7730     1.4490     4.1770 c3         1 WAQ       0.087100
     13 O2'          4.5320     1.8040     3.0190 oh         1 WAQ      -0.568800
     14 C3'          4.6790     1.4140     5.4280 c3         1 WAQ       0.084100
     15 O3'          6.0250     1.7470     5.0810 oh         1 WAQ      -0.578800
     16 C4'          4.5940    -0.0500     5.9140 c3         1 WAQ       0.118100
     17 O4'          3.3390    -0.5390     5.3910 os         1 WAQ      -0.388600
     18 C5'          4.5910    -0.1050     7.4430 c3         1 WAQ       0.239400
     19 O5'          4.6280    -1.4680     7.8710 os         1 WAQ      -0.593200
     20 OAB          3.7440   -10.8010    16.1680 o          1 WAQ      -0.864300
     21 OAC          4.4140    -3.2960    11.7280 o          1 WAQ      -0.503000
     22 OAD          3.4740    -1.2930    10.1080 o          1 WAQ      -0.798000
     23 OAE          3.8450    -8.6320    16.5820 o          1 WAQ      -0.864300
     24 OAH          5.9970    -1.3870    10.1140 o          1 WAQ      -0.798000
     25 CAK          4.1510    -7.3590    12.6220 c3         1 WAQ      -0.091400
     26 CAL          4.0360    -7.6860    14.1130 c3         1 WAQ      -0.062400
     27 CAM          4.2390    -5.8440    12.4370 c3         1 WAQ      -0.072400
     28 CAN          3.9490    -9.2020    14.2970 c3         1 WAQ      -0.182400
     29 CAO          4.3540    -5.5170    10.9470 c3         1 WAQ      -0.137400
     30 OAU          4.5490    -3.5040     9.5320 os         1 WAQ      -0.558500
     31 CAW          3.8350    -9.5240    15.7660 c          1 WAQ       0.891600
     32 CAX          4.4420    -4.0240    10.7640 c          1 WAQ       0.677100
     33 PBG          4.6360    -1.9000     9.4210 p5         1 WAQ       1.330800
     34 H2           1.8420    -0.0010    -0.9500 h5         1 WAQ       0.053100
     35 HN6         -2.5670    -0.5440     0.4510 hn         1 WAQ       0.442300
     36 HN6A        -2.5770     0.5220     1.8170 hn         1 WAQ       0.442300
     37 H8           0.7580     0.0030     5.4780 h5         1 WAQ       0.104800
     38 H1'          3.8700    -0.5690     3.3760 h2         1 WAQ       0.107700
     39 H2'          2.9510     2.1380     4.3260 h1         1 WAQ       0.047700
     40 HO2'         4.4670     2.7330     2.8740 ho         1 WAQ       0.398000
     41 H3'          4.2990     2.0860     6.1870 h1         1 WAQ       0.052700
     42 HO3'         6.3200     2.4640     5.6170 ho         1 WAQ       0.400000
     43 H4'          5.4180    -0.6280     5.5110 h1         1 WAQ       0.086700
     44 H5'          3.6910     0.3670     7.8190 h1         1 WAQ       0.042200
     45 H5'A         5.4600     0.4170     7.8240 h1         1 WAQ       0.042200
     46 HAK          3.2790    -7.7360    12.1020 hc         1 WAQ       0.022700
     47 HAKA         5.0420    -7.8250    12.2180 hc         1 WAQ       0.022700
     48 HAL          4.9080    -7.3090    14.6330 hc         1 WAQ       0.047200
     49 HALA         3.1450    -7.2210    14.5170 hc         1 WAQ       0.047200
     50 HAM          3.3490    -5.3780    12.8410 hc         1 WAQ       0.056200
     51 HAMA         5.1110    -5.4670    12.9580 hc         1 WAQ       0.056200
     52 HAN          3.0770    -9.5790    13.7760 hc         1 WAQ       0.023700
     53 HANA         4.8400    -9.6670    13.8930 hc         1 WAQ       0.023700
     54 HAO          5.2450    -5.9830    10.5430 hc         1 WAQ       0.053200
     55 HAOA         3.4820    -5.8940    10.4270 hc         1 WAQ       0.053200
@<TRIPOS>BOND
     1     1     6 ar
     2     1     2 ar
     3     2     3 ar
     4     2    34 1
     5     3     4 ar
     6     5     4 ar
     7     4    10 1
     8     6     5 ar
     9     5     8 1
    10     7     6 1
    11     7    35 1
    12     7    36 1
    13     8     9 2
    14     9    10 1
    15     9    37 1
    16    10    11 1
    17    12    11 1
    18    11    17 1
    19    11    38 1
    20    12    13 1
    21    12    14 1
    22    12    39 1
    23    13    40 1
    24    14    15 1
    25    14    16 1
    26    14    41 1
    27    15    42 1
    28    17    16 1
    29    16    18 1
    30    16    43 1
    31    19    18 1
    32    18    44 1
    33    18    45 1
    34    19    33 1
    35    31    20 1
    36    21    32 2
    37    22    33 1
    38    23    31 1
    39    33    24 1
    40    27    25 1
    41    25    26 1
    42    25    46 1
    43    25    47 1
    44    28    26 1
    45    26    48 1
    46    26    49 1
    47    29    27 1
    48    27    50 1
    49    27    51 1
    50    28    31 1
    51    28    52 1
    52    28    53 1
    53    32    29 1
    54    29    54 1
    55    29    55 1
    56    33    30 1
    57    30    32 1
@<TRIPOS>SUBSTRUCTURE
     1 WAQ         1 TEMP              0 ****  ****    0 ROOT
