@<TRIPOS>MOLECULE
WAY
   51    53     1     0     0
SMALL
bcc


@<TRIPOS>ATOM
      1 C1           0.0000     0.0000     0.0000 ca         1 WAY       0.144600
      2 C2           1.4030     0.0000     0.0000 ca         1 WAY      -0.169600
      3 CF2          2.0930     0.0000     1.2160 ca         1 WAY      -0.091000
      4 CH           1.3940    -0.0120     2.4020 ca         1 WAY      -0.100000
      5 CF1          0.0090    -0.0190     2.3990 ca         1 WAY      -0.071000
      6 C6          -0.6880    -0.0130     1.2070 ca         1 WAY      -0.072300
      7 C10          2.1450     0.0140    -1.2730 c          1 WAY       0.590700
      8 O11          1.5410     0.0130    -2.3290 o          1 WAY      -0.636100
      9 N12          3.4920     0.0250    -1.2680 ns         1 WAY      -0.053400
     10 O13          4.2040     0.0370    -2.4920 oh         1 WAY      -0.434100
     11 CE          -2.1950    -0.0200     1.2150 c3         1 WAY       0.029200
     12 N20         -0.6970     0.0060    -1.2000 nh         1 WAY      -0.354900
     13 S21         -1.1070    -1.4240    -1.9280 sy         1 WAY       1.057200
     14 CD          -1.0710     1.2770    -1.8240 c3         1 WAY       0.311100
     15 CK          -3.8110     2.8600     0.2340 ca         1 WAY      -0.240300
     16 CM          -4.9110     2.4290    -0.4830 ca         1 WAY       0.408200
     17 N25         -4.7650     1.6770    -1.5560 nb         1 WAY      -0.587000
     18 CJ          -3.5730     1.3140    -1.9910 ca         1 WAY       0.428200
     19 C27         -2.4280     1.7030    -1.3230 ca         1 WAY      -0.259600
     20 CI          -2.5430     2.4940    -0.1900 ca         1 WAY      -0.058000
     21 C35          0.2160    -1.8650    -3.0030 ca         1 WAY      -0.152500
     22 CC1          1.2580    -2.6420    -2.5330 ca         1 WAY       0.049500
     23 CB1          2.2970    -2.9900    -3.3740 ca         1 WAY      -0.208500
     24 C38          2.2940    -2.5590    -4.6930 ca         1 WAY       0.185100
     25 CB2          1.2490    -1.7760    -5.1600 ca         1 WAY      -0.208500
     26 CC2          0.2100    -1.4360    -4.3170 ca         1 WAY       0.049500
     27 O45          3.3140    -2.9000    -5.5220 os         1 WAY      -0.284900
     28 CA           3.0260    -2.3150    -6.7940 c3         1 WAY       0.216700
     29 O50         -2.2090    -1.1260    -2.7730 o          1 WAY      -0.593300
     30 O51         -1.1040    -2.3970    -0.8930 o          1 WAY      -0.593300
     31 HF2          3.1760     0.0030     1.2240 ha         1 WAY       0.098000
     32 HH           1.9310    -0.0140     3.3430 ha         1 WAY       0.105000
     33 HF1         -0.5320    -0.0280     3.3380 ha         1 WAY       0.109000
     34 H14          3.9890     0.0470    -0.4000 hn         1 WAY       0.166500
     35 H15          4.9440     0.6180    -2.4190 ho         1 WAY       0.389000
     36 HE1         -2.5490    -0.8790     1.7720 hc         1 WAY       0.023700
     37 HE2         -2.5620    -0.0730     0.1970 hc         1 WAY       0.023700
     38 HE3         -2.5580     0.8880     1.6830 hc         1 WAY       0.023700
     39 HD1         -0.3390     2.0340    -1.5690 h1         1 WAY       0.028200
     40 HD2         -1.1060     1.1550    -2.8990 h1         1 WAY       0.028200
     41 HL          -5.9050     2.7090    -0.1570 h4         1 WAY      -0.023900
     42 HJ          -3.4920     0.6950    -2.8760 h4         1 WAY       0.023100
     43 HI          -1.6620     2.8180     0.3520 ha         1 WAY       0.109000
     44 HC1          1.2600    -2.9780    -1.5030 ha         1 WAY       0.114500
     45 HB1          3.1120    -3.6000    -3.0050 ha         1 WAY       0.123500
     46 HB2          1.2440    -1.4380    -6.1900 ha         1 WAY       0.123500
     47 HC2         -0.6060    -0.8240    -4.6820 ha         1 WAY       0.114500
     48 HA1          2.9670    -1.2380    -6.6910 h1         1 WAY       0.003033
     49 HA2          3.8120    -2.5680    -7.4940 h1         1 WAY       0.003033
     50 HA3          2.0800    -2.6940    -7.1600 h1         1 WAY       0.003033
     51 HK          -3.9380     3.4780     1.1150 ha         1 WAY       0.111000
@<TRIPOS>BOND
     1     1     2 ar  
     2     1     6 ar  
     3     1    12 1   
     4     2     3 ar  
     5     2     7 1   
     6     3     4 ar  
     7     3    31 1   
     8     4     5 ar  
     9     4    32 1   
    10     5     6 ar  
    11     5    33 1   
    12     6    11 1   
    13     7     8 2   
    14     7     9 1   
    15     9    10 1   
    16     9    34 1   
    17    10    35 1   
    18    11    36 1   
    19    11    37 1   
    20    11    38 1   
    21    12    13 1   
    22    12    14 1   
    23    13    21 1   
    24    13    29 2   
    25    13    30 2   
    26    14    19 1   
    27    14    39 1   
    28    14    40 1   
    29    15    16 ar  
    30    15    20 ar  
    31    15    51 1   
    32    16    17 ar  
    33    16    41 1   
    34    17    18 ar  
    35    18    19 ar  
    36    18    42 1   
    37    19    20 ar  
    38    20    43 1   
    39    21    22 ar  
    40    21    26 ar  
    41    22    23 ar  
    42    22    44 1   
    43    23    24 ar  
    44    23    45 1   
    45    24    25 ar  
    46    24    27 1   
    47    25    26 ar  
    48    25    46 1   
    49    26    47 1   
    50    27    28 1   
    51    28    48 1   
    52    28    49 1   
    53    28    50 1   
@<TRIPOS>SUBSTRUCTURE
     1 WAY         1 TEMP              0 ****  ****    0 ROOT
