@<TRIPOS>MOLECULE
WBI
   50    53     1     0     0
SMALL
bcc


@<TRIPOS>ATOM
      1 C            0.0000     0.0000     0.0000 c3         1 WBI      -0.028400
      2 N            1.5290    -1.1890     2.1420 nh         1 WBI      -0.353000
      3 O            4.5990     0.3510     9.3140 o          1 WBI      -0.675500
      4 C1           1.5300     0.0000     0.0000 c3         1 WBI      -0.026400
      5 N1           5.0790    -1.6110     7.4720 ns         1 WBI      -0.044100
      6 O1           3.0110    -1.6750     8.2800 o          1 WBI      -0.625100
      7 C2           2.0360     0.0000     1.4460 c3         1 WBI       0.135300
      8 N2           5.8670    -0.5590    10.8970 ns         1 WBI       0.100900
      9 C3           2.0750    -1.2900     3.4170 ca         1 WBI       0.046600
     10 N3           9.5590    -5.6810    11.7630 nb         1 WBI      -0.584000
     11 C4           1.2370    -1.3770     4.5260 ca         1 WBI      -0.165500
     12 C5           1.7740    -1.4770     5.7890 ca         1 WBI      -0.028000
     13 C6           3.1620    -1.4900     5.9580 ca         1 WBI      -0.186600
     14 C7           3.7410    -1.5980     7.3110 c          1 WBI       0.599700
     15 C8           5.6290    -1.6080     8.7600 cc         1 WBI      -0.194600
     16 C9           6.4550    -2.6210     9.1600 cd         1 WBI      -0.028000
     17 C10          7.0000    -2.5880    10.4620 cd         1 WBI      -0.131200
     18 C11          6.6870    -1.5600    11.3030 cc         1 WBI      -0.135400
     19 C12          5.3360    -0.5580     9.6600 c          1 WBI       0.578700
     20 C13          7.8990    -3.6750    10.9200 ca         1 WBI       0.002200
     21 C14          9.1450    -3.8760    10.3180 ca         1 WBI      -0.216800
     22 C15          9.9510    -4.8990    10.7750 ca         1 WBI       0.407700
     23 C16          8.3900    -5.5250    12.3570 ca         1 WBI       0.407700
     24 C17          7.5240    -4.5270    11.9630 ca         1 WBI      -0.216800
     25 C18          4.0000    -1.4010     4.8420 ca         1 WBI      -0.028000
     26 C19          3.4570    -1.3080     3.5820 ca         1 WBI      -0.165500
     27 C20          0.0620    -1.1870     2.1960 c3         1 WBI       0.135300
     28 C21         -0.5030    -1.2220     0.7740 c3         1 WBI      -0.026400
     29 H1          -0.3610    -0.0460    -1.0200 hc         1 WBI       0.015200
     30 H2          -0.3610     0.9030     0.4770 hc         1 WBI       0.015200
     31 H11          1.8910     0.8860    -0.5080 hc         1 WBI       0.020950
     32 H21          1.8910    -0.8860    -0.5080 hc         1 WBI       0.020950
     33 HN1          5.6790    -1.6310     6.6720 hn         1 WBI       0.170500
     34 H12          1.6820     0.8910     1.9500 h1         1 WBI       0.020200
     35 H22          3.1190    -0.0160     1.4480 h1         1 WBI       0.020200
     36 HN2          5.6490     0.1870    11.5270 hn         1 WBI       0.171500
     37 H4           0.1620    -1.3670     4.3940 ha         1 WBI       0.121500
     38 H5           1.1220    -1.5460     6.6510 ha         1 WBI       0.111500
     39 H9           6.6960    -3.4320     8.4840 ha         1 WBI       0.116000
     40 H11A         7.1050    -1.5380    12.3020 h4         1 WBI       0.130000
     41 H14          9.4730    -3.2380     9.5070 ha         1 WBI       0.117500
     42 H15         10.9190    -5.0630    10.3160 h4         1 WBI      -0.019400
     43 H16          8.1080    -6.1900    13.1640 h4         1 WBI      -0.019400
     44 H17          6.5660    -4.4050    12.4550 ha         1 WBI       0.117500
     45 H18          5.0760    -1.4130     4.9700 ha         1 WBI       0.111500
     46 H19          4.1060    -1.2390     2.7170 ha         1 WBI       0.121500
     47 H120        -0.2790    -2.0600     2.7400 h1         1 WBI       0.020200
     48 H220        -0.2790    -0.2880     2.6960 h1         1 WBI       0.020200
     49 H121        -1.5850    -1.2020     0.8160 hc         1 WBI       0.020950
     50 H221        -0.1710    -2.1260     0.2770 hc         1 WBI       0.020950
@<TRIPOS>BOND
     1     1     4 1   
     2     1    28 1   
     3     1    29 1   
     4     1    30 1   
     5     2     7 1   
     6     2     9 1   
     7     2    27 1   
     8     3    19 2   
     9     4     7 1   
    10     4    31 1   
    11     4    32 1   
    12     5    14 1   
    13     5    15 1   
    14     5    33 1   
    15     6    14 2   
    16     7    34 1   
    17     7    35 1   
    18     8    18 1   
    19     8    19 1   
    20     8    36 1   
    21     9    11 ar  
    22     9    26 ar  
    23    10    22 ar  
    24    10    23 ar  
    25    11    12 ar  
    26    11    37 1   
    27    12    13 ar  
    28    12    38 1   
    29    13    14 1   
    30    13    25 ar  
    31    15    16 2   
    32    15    19 1   
    33    16    17 1   
    34    16    39 1   
    35    17    18 2   
    36    17    20 1   
    37    18    40 1   
    38    20    21 ar  
    39    20    24 ar  
    40    21    22 ar  
    41    21    41 1   
    42    22    42 1   
    43    23    24 ar  
    44    23    43 1   
    45    24    44 1   
    46    25    26 ar  
    47    25    45 1   
    48    26    46 1   
    49    27    28 1   
    50    27    47 1   
    51    27    48 1   
    52    28    49 1   
    53    28    50 1   
@<TRIPOS>SUBSTRUCTURE
     1 WBI         1 TEMP              0 ****  ****    0 ROOT
