@<TRIPOS>MOLECULE
WBT
   58    62     1     0     0
SMALL
bcc


@<TRIPOS>ATOM
      1 F1           0.0000     0.0000     0.0000 f          1 WBT      -0.125900
      2 C2           1.3510     0.0000     0.0000 ca         1 WBT       0.126900
      3 C3           2.0410     0.0000     1.2000 ca         1 WBT      -0.185000
      4 C4           3.4300     0.0010     1.2080 ca         1 WBT       0.028600
      5 C5           4.1300     0.0040     0.0110 ca         1 WBT      -0.065000
      6 C6           3.4370     0.0020    -1.1980 ca         1 WBT      -0.113600
      7 C7           2.0410    -0.0050    -1.1970 ca         1 WBT      -0.143000
      8 C8           4.1770     0.0050    -2.4780 c          1 WBT       0.579700
      9 O9           5.3920     0.0060    -2.4770 o          1 WBT      -0.634100
     10 N10          3.5040     0.0040    -3.6460 ns         1 WBT      -0.026100
     11 C11          4.2000     0.1210    -4.8530 ca         1 WBT      -0.083400
     12 C12          3.7290    -0.5350    -5.9900 ca         1 WBT      -0.158000
     13 C13          4.3950    -0.4290    -7.1760 ca         1 WBT      -0.022000
     14 C14          5.5580     0.3410    -7.2540 ca         1 WBT      -0.115800
     15 C15          6.4940     0.6600    -8.3350 cc         1 WBT      -0.156200
     16 C16          7.4390     1.4580    -7.8130 cd         1 WBT      -0.254100
     17 N17          7.1840     1.6760    -6.4850 na         1 WBT       0.393600
     18 C18          8.0050     2.5000    -5.5950 c3         1 WBT      -0.041700
     19 C19          7.5020     3.9440    -5.6280 c3         1 WBT       0.008900
     20 C20          8.3480     4.7900    -4.7110 ca         1 WBT      -0.062300
     21 C21          9.4850     5.4270    -5.1820 ca         1 WBT      -0.218800
     22 C22         10.2350     6.1960    -4.3130 ca         1 WBT       0.408700
     23 N23          9.8790     6.3270    -3.0500 nb         1 WBT      -0.583000
     24 C24          8.8030     5.7360    -2.5670 ca         1 WBT       0.408700
     25 C25          8.0020     4.9570    -3.3790 ca         1 WBT      -0.218800
     26 C26          6.0400     1.0060    -6.1120 ca         1 WBT      -0.190200
     27 C27          5.3470     0.8940    -4.9130 ca         1 WBT      -0.097000
     28 N28          4.1210     0.0020     2.4210 nh         1 WBT      -0.347000
     29 C29          3.1080     0.0000     3.4840 c3         1 WBT       0.081300
     30 C30          3.7900     0.1750     4.8420 c3         1 WBT       0.199900
     31 O31          4.4450     1.4430     4.8920 os         1 WBT      -0.392600
     32 C32          5.4610     1.4320     3.8890 c3         1 WBT       0.199900
     33 C33          4.8220     1.2900     2.5080 c3         1 WBT       0.081300
     34 H3           1.4960    -0.0020     2.1360 ha         1 WBT       0.147000
     35 H5           5.2140     0.0070     0.0150 ha         1 WBT       0.142000
     36 H7           1.4980    -0.0070    -2.1350 ha         1 WBT       0.119000
     37 H10          2.5100    -0.1170    -3.6510 hn         1 WBT       0.173500
     38 H12          2.8290    -1.1340    -5.9300 ha         1 WBT       0.104000
     39 H13          4.0240    -0.9420    -8.0550 ha         1 WBT       0.101000
     40 H15          6.4350     0.3180    -9.3610 ha         1 WBT       0.128000
     41 H16          8.2780     1.8690    -8.3610 h4         1 WBT       0.139000
     42 H181         9.0360     2.4690    -5.9250 h1         1 WBT       0.040200
     43 H182         7.9380     2.1170    -4.5840 h1         1 WBT       0.040200
     44 H191         7.5700     4.3270    -6.6380 hc         1 WBT       0.030700
     45 H192         6.4710     3.9740    -5.2980 hc         1 WBT       0.030700
     46 H21          9.7830     5.3240    -6.2190 ha         1 WBT       0.116000
     47 H22         11.1250     6.6970    -4.6730 h4         1 WBT      -0.019900
     48 H24          8.5410     5.8690    -1.5240 h4         1 WBT      -0.019900
     49 H25          7.1190     4.4740    -2.9770 ha         1 WBT       0.116000
     50 H27          5.6450     1.4880    -4.0570 ha         1 WBT       0.129000
     51 H291         2.5730    -0.9410     3.4700 h1         1 WBT       0.032200
     52 H292         2.4150     0.8180     3.3220 h1         1 WBT       0.032200
     53 H301         3.0460     0.1250     5.6270 h1         1 WBT       0.017700
     54 H302         4.5210    -0.6120     4.9800 h1         1 WBT       0.017700
     55 H321         6.1290     0.5970     4.0630 h1         1 WBT       0.017700
     56 H322         6.0180     2.3600     3.9330 h1         1 WBT       0.017700
     57 H331         5.5930     1.3310     1.7480 h1         1 WBT       0.032200
     58 H332         4.1140     2.0950     2.3540 h1         1 WBT       0.032200
@<TRIPOS>BOND
     1     1     2 1   
     2     2     3 ar  
     3     2     7 ar  
     4     3     4 ar  
     5     3    34 1   
     6     4     5 ar  
     7     4    28 1   
     8     5     6 ar  
     9     5    35 1   
    10     6     7 ar  
    11     6     8 1   
    12     7    36 1   
    13     8     9 2   
    14     8    10 1   
    15    10    11 1   
    16    10    37 1   
    17    11    12 ar  
    18    11    27 ar  
    19    12    13 ar  
    20    12    38 1   
    21    13    14 ar  
    22    13    39 1   
    23    14    15 1   
    24    14    26 ar  
    25    15    16 2   
    26    15    40 1   
    27    16    17 1   
    28    16    41 1   
    29    17    18 1   
    30    17    26 1   
    31    18    19 1   
    32    18    42 1   
    33    18    43 1   
    34    19    20 1   
    35    19    44 1   
    36    19    45 1   
    37    20    21 ar  
    38    20    25 ar  
    39    21    22 ar  
    40    21    46 1   
    41    22    23 ar  
    42    22    47 1   
    43    23    24 ar  
    44    24    25 ar  
    45    24    48 1   
    46    25    49 1   
    47    26    27 ar  
    48    27    50 1   
    49    28    29 1   
    50    28    33 1   
    51    29    30 1   
    52    29    51 1   
    53    29    52 1   
    54    30    31 1   
    55    30    53 1   
    56    30    54 1   
    57    31    32 1   
    58    32    33 1   
    59    32    55 1   
    60    32    56 1   
    61    33    57 1   
    62    33    58 1   
@<TRIPOS>SUBSTRUCTURE
     1 WBT         1 TEMP              0 ****  ****    0 ROOT
