@<TRIPOS>MOLECULE
WBU
   14    14     1     0     0
SMALL
bcc


@<TRIPOS>ATOM
      1 N1         -0.0520    0.0580   -0.0310 n         1 WBU     -0.466100
      2 C2          1.3550   -0.0100   -0.0520 c         1 WBU      0.801500
      3 O2          1.9710   -0.0370   -1.1380 o         1 WBU     -0.636500
      4 N3          2.0300   -0.0570    1.1780 n         1 WBU     -0.576500
      5 C4          1.3650   -0.0360    2.4100 c         1 WBU      0.693700
      6 O4          2.0290   -0.0870    3.4610 o         1 WBU     -0.619500
      7 C5         -0.1230    0.0490    2.3750 cc        1 WBU     -0.093200
      8 C6         -0.7540    0.1130    1.1570 cd        1 WBU      0.019600
      9 N01        -0.8390    0.1480    3.5860 nh        1 WBU     -0.767600
     10 H1         -0.5210    0.1130   -0.9060 hn        1 WBU      0.356500
     11 H3          3.0260   -0.1090    1.1520 hn        1 WBU      0.356500
     12 H6         -1.8530    0.1930    1.0600 h4        1 WBU      0.173000
     13 H011       -0.2230    0.3890    4.3410 hn        1 WBU      0.378800
     14 H012       -1.3120   -0.7120    3.7920 hn        1 WBU      0.378800
@<TRIPOS>BOND
     1    1    2 1   
     2    1    8 1   
     3    1   10 1   
     4    2    3 2   
     5    2    4 1   
     6    4    5 1   
     7    4   11 1   
     8    5    6 2   
     9    5    7 1   
    10    7    8 2   
    11    7    9 1   
    12    8   12 1   
    13    9   13 1   
    14    9   14 1   
@<TRIPOS>SUBSTRUCTURE
     1 WBU         1 TEMP              0 ****  ****    0 ROOT
