@<TRIPOS>MOLECULE
molecule
   53    55     1     0     0
SMALL
bcc


@<TRIPOS>ATOM
      1 OAE          0.0000     0.0000     0.0000 o          1 WC1      -0.927333
      2 PAD          1.4800     0.0000     0.0000 p5         1 WC1       1.128700
      3 OAF          2.0170     0.0000     1.5190 o          1 WC1      -0.927333
      4 OAG          2.0170    -1.3150    -0.7590 o          1 WC1      -0.927333
      5 CAC          2.0880     1.4890    -0.8590 c3         1 WC1      -0.394100
      6 PAH          1.8100     1.3130    -2.6520 p5         1 WC1       1.128700
      7 OAI          1.9710     2.7470    -3.3640 o          1 WC1      -0.927333
      8 OAK          2.8000     0.3680    -3.2130 o          1 WC1      -0.927333
      9 OAJ          0.3240     0.7500    -2.9110 o          1 WC1      -0.927333
     10 CAB          1.3340     2.7180    -0.3440 c3         1 WC1       0.035800
     11 CAA          1.6890     2.9550     1.1010 cc         1 WC1       0.021600
     12 CAO          2.7500     3.6380     1.5620 cd         1 WC1      -0.173300
     13 CAT          3.7920     4.3010     0.6990 c3         1 WC1       0.017500
     14 CAU          3.7190     5.8170     0.8850 c3         1 WC1      -0.089100
     15 CAV          5.1810     3.8040     1.1070 c3         1 WC1      -0.064700
     16 CAX          5.2540     2.2870     0.9220 c3         1 WC1      -0.092600
     17 CAW          6.2400     4.4770     0.2310 c3         1 WC1      -0.092600
     18 NAN          2.7420     3.6440     2.9300 na         1 WC1      -0.203400
     19 CAM          1.6500     2.9470     3.3970 ca         1 WC1      -0.055200
     20 CAS          1.1790     2.6530     4.6730 ca         1 WC1      -0.197000
     21 CAR          0.0370     1.9230     4.8320 ca         1 WC1      -0.126000
     22 CAL          0.9380     2.4900     2.2710 ca         1 WC1      -0.029800
     23 CAP         -0.2310     1.7500     2.4390 ca         1 WC1       0.064000
     24 CAQ         -0.6750     1.4570     3.7210 cp         1 WC1      -0.160000
     25 CAY         -1.9170     0.6710     3.9140 cp         1 WC1       0.042000
     26 CAZ         -2.3660     0.3760     5.2000 ca         1 WC1      -0.141000
     27 CBA         -3.5240    -0.3560     5.3730 ca         1 WC1      -0.144500
     28 CBB         -4.2390    -0.7960     4.2730 ca         1 WC1      -0.225000
     29 CBC         -3.7980    -0.5040     2.9950 ca         1 WC1      -0.144500
     30 CBD         -2.6450     0.2310     2.8090 ca         1 WC1      -0.141000
     31 H3           3.1480     1.6090    -0.6680 hc         1 WC1       0.020700
     32 H6           1.6130     3.5840    -0.9320 hc         1 WC1       0.039700
     33 H7           0.2680     2.5500    -0.4310 hc         1 WC1       0.039700
     34 H8           3.6110     4.0550    -0.3400 hc         1 WC1       0.133700
     35 H9           3.9850     6.3080    -0.0440 hc         1 WC1       0.007700
     36 H10          4.4090     6.1190     1.6640 hc         1 WC1       0.007700
     37 H11          2.7120     6.0990     1.1660 hc         1 WC1       0.007700
     38 H12          5.3620     4.0500     2.1460 hc         1 WC1      -0.003300
     39 H13          6.2670     1.9490     1.1070 hc         1 WC1       0.035867
     40 H14          4.5790     1.8050     1.6180 hc         1 WC1       0.035867
     41 H15          4.9690     2.0330    -0.0920 hc         1 WC1       0.035867
     42 H16          6.4480     5.4690     0.6140 hc         1 WC1       0.035867
     43 H17          5.8730     4.5520    -0.7860 hc         1 WC1       0.035867
     44 H18          7.1480     3.8870     0.2440 hc         1 WC1       0.035867
     45 H19          3.4290     4.0880     3.5060 hn         1 WC1       0.234700
     46 H20          1.7200     3.0070     5.5430 ha         1 WC1       0.057000
     47 H21         -0.3160     1.6900     5.8300 ha         1 WC1       0.069000
     48 H22         -0.7790     1.3920     1.5760 ha         1 WC1       0.216000
     49 H23         -1.8070     0.7190     6.0620 ha         1 WC1       0.156500
     50 H24         -3.8730    -0.5860     6.3720 ha         1 WC1       0.087000
     51 H25         -5.1460    -1.3710     4.4130 ha         1 WC1       0.070000
     52 H26         -4.3630    -0.8490     2.1370 ha         1 WC1       0.087000
     53 H27         -2.3010     0.4580     1.8080 ha         1 WC1       0.156500
@<TRIPOS>BOND
     1     1     2 1
     2     4     2 1
     3     2     3 1
     4     2     5 1
     5     8     6 1
     6    10     5 1
     7    10    11 1
     8     5     6 1
     9    28    29 ar
    10    28    27 ar
    11    16    15 1
    12    29    30 ar
    13    27    26 ar
    14     6     9 1
    15     6     7 1
    16    30    25 ar
    17    26    25 ar
    18    23    22 ar
    19    23    24 ar
    20    25    24 1
    21    11    22 1
    22    11    12 2
    23    22    19 ar
    24    24    21 ar
    25    15    13 1
    26    15    17 1
    27    12    13 1
    28    12    18 1
    29    13    14 1
    30    19    18 1
    31    19    20 ar
    32    21    20 ar
    33     5    31 1
    34    10    32 1
    35    10    33 1
    36    13    34 1
    37    14    35 1
    38    14    36 1
    39    14    37 1
    40    15    38 1
    41    16    39 1
    42    16    40 1
    43    16    41 1
    44    17    42 1
    45    17    43 1
    46    17    44 1
    47    18    45 1
    48    20    46 1
    49    21    47 1
    50    23    48 1
    51    26    49 1
    52    27    50 1
    53    28    51 1
    54    29    52 1
    55    30    53 1
@<TRIPOS>SUBSTRUCTURE
     1 WC1         1 TEMP              0 ****  ****    0 ROOT
