@<TRIPOS>MOLECULE
WC1
   53    55     1     0     0
SMALL
bcc


@<TRIPOS>ATOM
      1 OAE         2.3170   -0.7040    0.5940 oh        1 WC1     -0.818400
      2 PAD         2.2630   -0.3090   -1.0400 p5        1 WC1      1.430600
      3 OAF         3.4940   -1.0140   -1.5220 o         1 WC1     -0.936000
      4 OAG         0.9430   -0.9200   -1.4010 o         1 WC1     -0.936000
      5 CAC         2.3440    1.3490   -1.0340 c3        1 WC1     -0.542100
      6 PAH         2.5020    2.7210   -2.6180 p5        1 WC1      1.222700
      7 OAI         3.8810    3.2720   -2.3150 o         1 WC1     -0.927833
      8 OAK         2.4020    1.9870   -3.9200 o         1 WC1     -0.927833
      9 OAJ         1.4320    3.7630   -2.4370 o         1 WC1     -0.927833
     10 CAB         1.2480    1.9510   -0.2220 c3        1 WC1      0.010800
     11 CAA         1.5590    2.4840    1.1370 cc        1 WC1      0.023800
     12 CAO         2.5880    3.3530    1.5010 cd        1 WC1     -0.181300
     13 CAT         3.5940    4.0380    0.6510 c3        1 WC1     -0.036500
     14 CAU         3.3510    5.5370    0.6500 c3        1 WC1     -0.053100
     15 CAV         5.0450    3.7400    1.0510 c3        1 WC1     -0.028700
     16 CAX         5.2630    2.2650    1.3140 c3        1 WC1     -0.102600
     17 CAW         5.9720    4.1910   -0.0630 c3        1 WC1     -0.102600
     18 NAN         2.4930    3.7130    2.8930 na        1 WC1     -0.288300
     19 CAM         1.4350    2.9490    3.4200 cc        1 WC1      0.176900
     20 CAS         0.9640    2.9160    4.7500 ce        1 WC1     -0.337600
     21 CAR        -0.2040    2.2250    5.0060 cf        1 WC1     -0.119000
     22 CAL         0.7640    2.2430    2.3580 cc        1 WC1     -0.236700
     23 CAP        -0.4280    1.5640    2.6310 c1        1 WC1     -0.125800
     24 CAQ        -0.9070    1.5730    3.9630 cf        1 WC1     -0.258300
     25 CAY        -2.1480    0.8890    4.2250 ca        1 WC1      0.103200
     26 CAZ        -2.8220    0.9110    5.4630 ca        1 WC1     -0.178000
     27 CBA        -4.0240    0.2290    5.6470 ca        1 WC1     -0.147500
     28 CBB        -4.5980   -0.4920    4.6070 ca        1 WC1     -0.247000
     29 CBC        -3.9460   -0.5240    3.3640 ca        1 WC1     -0.147500
     30 CBD        -2.7530    0.1460    3.1710 ca        1 WC1     -0.178000
     31 H3          3.3510    1.6510   -0.6810 hc        1 WC1      0.070700
     32 H6          0.4310    1.1800   -0.0920 hc        1 WC1      0.065200
     33 H7          0.7730    2.8230   -0.7740 hc        1 WC1      0.065200
     34 H8          3.4440    3.6650   -0.4290 hc        1 WC1      0.199700
     35 H9          3.6110    6.0030    1.6330 hc        1 WC1      0.003367
     36 H10         2.2750    5.7360    0.4300 hc        1 WC1      0.003367
     37 H11         3.9700    6.0220   -0.1430 hc        1 WC1      0.003367
     38 H12         5.2930    4.3110    1.9940 hc        1 WC1     -0.041300
     39 H13         4.5510    1.8860    2.0850 hc        1 WC1      0.034367
     40 H14         6.3080    2.0860    1.6710 hc        1 WC1      0.034367
     41 H15         5.0930    1.6820    0.3730 hc        1 WC1      0.034367
     42 H16         6.0480    5.3050   -0.0900 hc        1 WC1      0.034367
     43 H17         5.5480    3.8260   -1.0480 hc        1 WC1      0.034367
     44 H18         7.0010    3.7820    0.0850 hc        1 WC1      0.034367
     45 H19         3.3480    3.7380    3.3980 hn        1 WC1      0.209700
     46 H20         1.5110    3.4250    5.5520 ha        1 WC1      0.057000
     47 H21        -0.5670    2.1850    6.0440 ha        1 WC1      0.045000
     48 H22         1.5080   -0.4650    1.0260 ho        1 WC1      0.393000
     49 H23        -2.4030    1.4770    6.3050 ha        1 WC1      0.157500
     50 H24        -4.5230    0.2660    6.6260 ha        1 WC1      0.076000
     51 H25        -5.5420   -1.0300    4.7520 ha        1 WC1      0.067000
     52 H26        -4.3930   -1.0940    2.5370 ha        1 WC1      0.076000
     53 H27        -2.2090    0.1480    2.2010 ha        1 WC1      0.157500
@<TRIPOS>BOND
     1    1    2 1   
     2    1   48 1   
     3    2    3 1   
     4    2    4 1   
     5    2    5 1   
     6    5    6 1   
     7    5   10 1   
     8    5   31 1   
     9    6    7 1   
    10    6    8 1   
    11    6    9 1   
    12   10   11 1   
    13   10   32 1   
    14   10   33 1   
    15   11   12 2   
    16   11   22 1   
    17   12   13 1   
    18   12   18 1   
    19   13   14 1   
    20   13   15 1   
    21   13   34 1   
    22   14   35 1   
    23   14   36 1   
    24   14   37 1   
    25   15   16 1   
    26   15   17 1   
    27   15   38 1   
    28   16   39 1   
    29   16   40 1   
    30   16   41 1   
    31   17   42 1   
    32   17   43 1   
    33   17   44 1   
    34   18   19 2   
    35   18   45 1   
    36   19   20 1   
    37   19   22 1   
    38   20   21 2   
    39   20   46 1   
    40   21   24 1   
    41   21   47 1   
    42   22   23 2   
    43   23   24 2   
    44   24   25 1   
    45   25   26 ar  
    46   25   30 ar  
    47   26   27 ar  
    48   26   49 1   
    49   27   28 ar  
    50   27   50 1   
    51   28   29 ar  
    52   28   51 1   
    53   29   30 ar  
    54   29   52 1   
    55   30   53 1   
@<TRIPOS>SUBSTRUCTURE
     1 WC1         1 TEMP              0 ****  ****    0 ROOT
