@<TRIPOS>MOLECULE
molecule
   17    17     1     0     0
SMALL
bcc


@<TRIPOS>ATOM
      1 C1           0.0000     0.0000     0.0000 ca         1 WCE       0.022400
      2 Cl          -0.8660     0.0010    -1.5040 cl         1 WCE      -0.028400
      3 C2           1.3810     0.0000     0.0000 ca         1 WCE      -0.024000
      4 C3           2.0750     0.0000     1.2100 ca         1 WCE      -0.206600
      5 C4           1.3680     0.0000     2.4140 ca         1 WCE      -0.116000
      6 C5          -0.0120    -0.0000     2.4000 ca         1 WCE      -0.100000
      7 C6          -0.6950     0.0060     1.1970 ca         1 WCE      -0.045000
      8 C7           3.5530    -0.0010     1.2190 c          1 WCE       0.508700
      9 N            4.2210    -0.0010     2.3890 nz         1 WCE      -0.678400
     10 O            4.1670    -0.0010     0.1690 o          1 WCE      -0.412100
     11 H2           1.9230    -0.0810    -0.9350 ha         1 WCE       0.182000
     12 H6          -1.7790     0.0150     1.1920 ha         1 WCE       0.179000
     13 H4           1.9000     0.0720     3.3550 ha         1 WCE       0.114000
     14 H5          -0.5610    -0.0050     3.3340 ha         1 WCE       0.169000
     15 HN1          3.9650    -0.8100     2.9200 hn         1 WCE       0.479133
     16 HN2          3.9900     0.8240     2.9060 hn         1 WCE       0.479133
     17 HN3          5.2060    -0.0180     2.2110 hn         1 WCE       0.479133
@<TRIPOS>BOND
     1     1     2 1
     2     1     3 ar
     3     1     7 ar
     4     3     4 ar
     5     4     5 ar
     6     4     8 1
     7     5     6 ar
     8     6     7 ar
     9     8     9 1
    10     8    10 2
    11     3    11 1
    12     7    12 1
    13     5    13 1
    14     6    14 1
    15     9    15 1
    16     9    16 1
    17    17     9 1
@<TRIPOS>SUBSTRUCTURE
     1 WCE         1 TEMP              0 ****  ****    0 ROOT
