@<TRIPOS>MOLECULE
molecule
   63    69     1     0     0
SMALL
bcc


@<TRIPOS>ATOM
      1 O1           0.0000     0.0000     0.0000 o          1 WCP      -0.627500
      2 C2           4.5310     0.0000     0.0000 ca         1 WCP      -0.132300
      3 C3           5.7230     0.0000     0.6950 ca         1 WCP       0.085600
      4 C4           5.6850    -0.0010     2.0920 ca         1 WCP       0.345200
      5 C5           3.3840    -0.0020     2.1360 ca         1 WCP       0.372100
      6 C6           2.0890    -0.0040     2.8240 cc         1 WCP      -0.141800
      7 C7           0.9670    -0.0030     2.0590 cd         1 WCP      -0.230200
      8 C8           1.0330    -0.0010     0.6470 c          1 WCP       0.705700
      9 C9           4.1280     0.0000    -1.4530 c3         1 WCP       0.207100
     10 C11          4.6510     1.2560    -2.1520 c3         1 WCP      -0.087400
     11 C14          3.2650     4.5300    -0.2000 c3         1 WCP       0.141200
     12 C15          3.9320     4.9830    -1.5040 c3         1 WCP      -0.065400
     13 C18          1.1200     7.5330     0.4450 ca         1 WCP       0.432600
     14 C19         -0.3980     8.3410     1.9820 ca         1 WCP       0.496200
     15 C20         -2.1670     9.1660     3.3250 c          1 WCP       0.669500
     16 C21         -1.8490    10.5560     2.8370 c3         1 WCP       0.074400
     17 C22          0.0960     9.6380     1.8340 ca         1 WCP      -0.023200
     18 O3          -3.0660     8.9910     4.1210 o          1 WCP      -0.605500
     19 N5          -1.4500     8.1140     2.8730 ns         1 WCP      -0.538400
     20 O4          -0.4510    10.6530     2.5500 os         1 WCP      -0.319900
     21 N4           0.1240     7.3430     1.2910 nb         1 WCP      -0.707000
     22 C23          1.1410     9.8690     0.9550 ca         1 WCP      -0.091000
     23 C24          1.6580     8.7910     0.2500 ca         1 WCP      -0.227300
     24 N3           2.6930     5.6820     0.5100 n7         1 WCP      -0.801200
     25 C13          2.1620     3.5220    -0.5340 c3         1 WCP       0.104400
     26 O2           2.7330     2.4060    -1.2200 os         1 WCP      -0.416600
     27 C16          4.4640     3.7490    -2.2410 c3         1 WCP      -0.114900
     28 C25          4.3140     3.8420     0.6800 c3         1 WCP      -0.065400
     29 C26          4.8380     2.6040    -0.0520 c3         1 WCP      -0.114900
     30 C12          4.1460     2.4990    -1.4150 c3         1 WCP       0.150800
     31 O5           4.6140    -1.1730    -2.1060 oh         1 WCP      -0.582800
     32 C10          2.5840     0.0000    -1.4220 c3         1 WCP       0.079000
     33 N1           2.2190    -0.0010     0.0020 n          1 WCP      -0.309000
     34 N2           4.5550    -0.0020     2.7680 nb         1 WCP      -0.608000
     35 C1           3.3660     0.0060     0.7390 ca         1 WCP      -0.024700
     36 F            6.9030     0.0010     0.0380 f          1 WCP      -0.120900
     37 H1           6.6210    -0.0010     2.6390 h4         1 WCP       0.043100
     38 H2           2.0320    -0.2820     3.8690 ha         1 WCP       0.161000
     39 H3          -0.0020    -0.0040     2.5430 ha         1 WCP       0.172000
     40 H4           4.2970     1.2740    -3.1750 hc         1 WCP       0.067200
     41 H5           5.7350     1.2480    -2.1460 hc         1 WCP       0.067200
     42 H6           3.2050     5.4920    -2.1260 hc         1 WCP       0.054700
     43 H7           4.7520     5.6540    -1.2800 hc         1 WCP       0.054700
     44 H8          -2.0950    11.2640     3.6190 h1         1 WCP       0.091700
     45 H9          -2.4060    10.7420     1.9270 h1         1 WCP       0.091700
     46 H10         -1.5640     7.2130     3.2930 hn         1 WCP       0.352500
     47 H11          1.5440    10.8660     0.8220 ha         1 WCP       0.158000
     48 H12          2.4750     8.9340    -0.4470 ha         1 WCP       0.151000
     49 H13          0.8850     5.6670    -0.5510 h1         1 WCP       0.053700
     50 H14          2.1410     6.7100    -1.2320 h1         1 WCP       0.053700
     51 H15          2.2740     5.3730     1.3640 hn         1 WCP       0.369800
     52 H17          1.6920     3.1820     0.3810 h1         1 WCP       0.050700
     53 H18          1.4200     3.9940    -1.1670 h1         1 WCP       0.050700
     54 H19          3.9890     3.6730    -3.2110 hc         1 WCP       0.059200
     55 H20          5.5360     3.8370    -2.3680 hc         1 WCP       0.059200
     56 H21          5.1340     4.5250     0.8710 hc         1 WCP       0.054700
     57 H22          3.8630     3.5450     1.6190 hc         1 WCP       0.054700
     58 H23          4.6220     1.7180     0.5330 hc         1 WCP       0.059200
     59 H24          5.9080     2.6920    -0.1950 hc         1 WCP       0.059200
     60 H25          4.3090    -1.1860    -2.9980 ho         1 WCP       0.411000
     61 H26          2.2010     0.8910    -1.9050 h1         1 WCP       0.092700
     62 H27          2.2010    -0.8900    -1.9060 h1         1 WCP       0.092700
     63 C17          1.6830     6.3600    -0.3140 c3         1 WCP       0.106500
@<TRIPOS>BOND
     1     1     8 2
     2     8     7 1
     3     8    33 1
     4     7     6 2
     5    23    22 ar
     6    23    13 ar
     7    22    17 ar
     8    63    13 1
     9    63    24 1
    10    13    21 ar
    11    12    27 1
    12    12    11 1
    13    33    32 1
    14    33    35 1
    15     6     5 1
    16    32     9 1
    17    24    11 1
    18    27    30 1
    19    17    20 1
    20    17    14 ar
    21    20    16 1
    22    21    14 ar
    23    11    28 1
    24    11    25 1
    25    35     5 ar
    26    35     2 ar
    27    14    19 1
    28     5    34 ar
    29    28    29 1
    30    16    15 1
    31     9    31 1
    32     9     2 1
    33     9    10 1
    34    30    29 1
    35    30    10 1
    36    30    26 1
    37    25    26 1
    38    19    15 1
    39     2     3 ar
    40    15    18 2
    41    34     4 ar
    42     3     4 ar
    43     3    36 1
    44     4    37 1
    45     6    38 1
    46     7    39 1
    47    10    40 1
    48    10    41 1
    49    12    42 1
    50    12    43 1
    51    16    44 1
    52    16    45 1
    53    19    46 1
    54    22    47 1
    55    23    48 1
    56    63    49 1
    57    63    50 1
    58    24    51 1
    59    25    52 1
    60    25    53 1
    61    27    54 1
    62    27    55 1
    63    28    56 1
    64    28    57 1
    65    29    58 1
    66    29    59 1
    67    31    60 1
    68    32    61 1
    69    32    62 1
@<TRIPOS>SUBSTRUCTURE
     1 WCP         1 TEMP              0 ****  ****    0 ROOT
