@<TRIPOS>MOLECULE
WCP
   63    69     1     0     0
SMALL
bcc


@<TRIPOS>ATOM
      1 O1           0.0000     0.0000     0.0000 o          1 WCP      -0.676500
      2 C2           4.5310     0.0000     0.0000 ca         1 WCP      -0.141300
      3 C3           5.7230     0.0000     0.6950 ca         1 WCP       0.077600
      4 C4           5.6850    -0.0010     2.0920 ca         1 WCP       0.325200
      5 C5           3.3840    -0.0020     2.1360 ca         1 WCP       0.332100
      6 C6           2.0890    -0.0040     2.8240 cc         1 WCP      -0.116800
      7 C7           0.9670    -0.0030     2.0590 cd         1 WCP      -0.209200
      8 C8           1.0330    -0.0010     0.6470 c          1 WCP       0.610700
      9 C9           4.1280     0.0000    -1.4530 c3         1 WCP       0.249100
     10 C11          4.6510     1.2560    -2.1520 c3         1 WCP      -0.052400
     11 C14          3.2650     4.5300    -0.2000 c3         1 WCP       0.070200
     12 C15          3.9320     4.9830    -1.5040 c3         1 WCP      -0.012400
     13 C18          1.1200     7.5330     0.4450 ca         1 WCP       0.367600
     14 C19         -0.3980     8.3410     1.9820 ca         1 WCP       0.293200
     15 C20         -2.1670     9.1660     3.3250 c          1 WCP       0.562500
     16 C21         -1.8490    10.5560     2.8370 c3         1 WCP       0.149400
     17 C22          0.0960     9.6380     1.8340 ca         1 WCP      -0.005200
     18 O3          -3.0660     8.9910     4.1210 o          1 WCP      -0.647500
     19 N5          -1.4500     8.1140     2.8730 ns         1 WCP      -0.096400
     20 O4          -0.4510    10.6530     2.5500 os         1 WCP      -0.296900
     21 N4           0.1240     7.3430     1.2910 nb         1 WCP      -0.569000
     22 C23          1.1410     9.8690     0.9550 ca         1 WCP      -0.073000
     23 C24          1.6580     8.7910     0.2500 ca         1 WCP      -0.186300
     24 N3           2.6930     5.6820     0.5100 n7         1 WCP      -0.565200
     25 C13          2.1620     3.5220    -0.5340 c3         1 WCP       0.173400
     26 O2           2.7330     2.4060    -1.2200 os         1 WCP      -0.404600
     27 C16          4.4640     3.7490    -2.2410 c3         1 WCP      -0.089900
     28 C25          4.3140     3.8420     0.6800 c3         1 WCP      -0.012400
     29 C26          4.8380     2.6040    -0.0520 c3         1 WCP      -0.089900
     30 C12          4.1460     2.4990    -1.4150 c3         1 WCP       0.173800
     31 O5           4.6140    -1.1730    -2.1060 oh         1 WCP      -0.569800
     32 C10          2.5840     0.0000    -1.4220 c3         1 WCP      -0.028000
     33 N1           2.2190    -0.0010     0.0020 n          1 WCP       0.120000
     34 N2           4.5550    -0.0020     2.7680 nb         1 WCP      -0.487000
     35 C1           3.3660     0.0060     0.7390 ca         1 WCP      -0.170700
     36 F            6.9030     0.0010     0.0380 f          1 WCP      -0.112900
     37 H1           6.6210    -0.0010     2.6390 h4         1 WCP      -0.000900
     38 H2           2.0320    -0.2820     3.8690 ha         1 WCP       0.123000
     39 H3          -0.0020    -0.0040     2.5430 ha         1 WCP       0.138000
     40 H4           4.2970     1.2740    -3.1750 hc         1 WCP       0.040200
     41 H5           5.7350     1.2480    -2.1460 hc         1 WCP       0.040200
     42 H6           3.2050     5.4920    -2.1260 hc         1 WCP       0.026700
     43 H7           4.7520     5.6540    -1.2800 hc         1 WCP       0.026700
     44 H8          -2.0950    11.2640     3.6190 h1         1 WCP       0.042700
     45 H9          -2.4060    10.7420     1.9270 h1         1 WCP       0.042700
     46 H10         -1.5640     7.2130     3.2930 hn         1 WCP       0.191500
     47 H11          1.5440    10.8660     0.8220 ha         1 WCP       0.125000
     48 H12          2.4750     8.9340    -0.4470 ha         1 WCP       0.123000
     49 H13          0.8850     5.6670    -0.5510 h1         1 WCP       0.027200
     50 H14          2.1410     6.7100    -1.2320 h1         1 WCP       0.027200
     51 H15          2.2740     5.3730     1.3640 hn         1 WCP       0.267800
     52 H17          1.6920     3.1820     0.3810 h1         1 WCP       0.018700
     53 H18          1.4200     3.9940    -1.1670 h1         1 WCP       0.018700
     54 H19          3.9890     3.6730    -3.2110 hc         1 WCP       0.040200
     55 H20          5.5360     3.8370    -2.3680 hc         1 WCP       0.040200
     56 H21          5.1340     4.5250     0.8710 hc         1 WCP       0.026700
     57 H22          3.8630     3.5450     1.6190 hc         1 WCP       0.026700
     58 H23          4.6220     1.7180     0.5330 hc         1 WCP       0.040200
     59 H24          5.9080     2.6920    -0.1950 hc         1 WCP       0.040200
     60 H25          4.3090    -1.1860    -2.9980 ho         1 WCP       0.400000
     61 H26          2.2010     0.8910    -1.9050 h1         1 WCP       0.069700
     62 H27          2.2010    -0.8900    -1.9060 h1         1 WCP       0.069700
     63 C17          1.6830     6.3600    -0.3140 c3         1 WCP       0.080500
@<TRIPOS>BOND
     1     1     8 2   
     2     2     3 ar  
     3     2     9 1   
     4     2    35 ar  
     5     3     4 ar  
     6     3    36 1   
     7     4    34 ar  
     8     4    37 1   
     9     5     6 1   
    10     5    34 ar  
    11     5    35 ar  
    12     6     7 2   
    13     6    38 1   
    14     7     8 1   
    15     7    39 1   
    16     8    33 1   
    17     9    10 1   
    18     9    31 1   
    19     9    32 1   
    20    10    30 1   
    21    10    40 1   
    22    10    41 1   
    23    11    12 1   
    24    11    24 1   
    25    11    25 1   
    26    11    28 1   
    27    12    27 1   
    28    12    42 1   
    29    12    43 1   
    30    13    21 ar  
    31    13    23 ar  
    32    13    63 1   
    33    14    17 ar  
    34    14    19 1   
    35    14    21 ar  
    36    15    16 1   
    37    15    18 2   
    38    15    19 1   
    39    16    20 1   
    40    16    44 1   
    41    16    45 1   
    42    17    20 1   
    43    17    22 ar  
    44    19    46 1   
    45    22    23 ar  
    46    22    47 1   
    47    23    48 1   
    48    24    51 1   
    49    24    63 1   
    50    25    26 1   
    51    25    52 1   
    52    25    53 1   
    53    26    30 1   
    54    27    30 1   
    55    27    54 1   
    56    27    55 1   
    57    28    29 1   
    58    28    56 1   
    59    28    57 1   
    60    29    30 1   
    61    29    58 1   
    62    29    59 1   
    63    31    60 1   
    64    32    33 1   
    65    32    61 1   
    66    32    62 1   
    67    33    35 1   
    68    49    63 1   
    69    50    63 1   
@<TRIPOS>SUBSTRUCTURE
     1 WCP         1 TEMP              0 ****  ****    0 ROOT
