@<TRIPOS>MOLECULE
molecule
   29    31     1     0     0
SMALL
bcc


@<TRIPOS>ATOM
      1 C10          0.0000     0.0000     0.0000 ca         1 WCU      -0.168000
      2 C13          1.3900    -0.0100     2.4010 ca         1 WCU       0.073100
      3 C01          0.8060    -2.4170    -4.3600 ca         1 WCU      -0.171000
      4 C02          0.2160    -2.5310    -3.1150 ca         1 WCU      -0.095000
      5 C03          0.6400    -1.7300    -2.0700 ca         1 WCU      -0.198000
      6 C04          1.6580    -0.8110    -2.2690 ca         1 WCU       0.175600
      7 C05          2.2530    -0.6970    -3.5260 ca         1 WCU       0.094600
      8 C06          1.8260    -1.5070    -4.5670 ca         1 WCU      -0.105000
      9 N07          3.2810     0.2300    -3.7340 nv         1 WCU      -0.987200
     10 N08          2.0880     0.0000    -1.2120 nu         1 WCU      -0.677000
     11 C09          1.3890     0.0000     0.0000 ca         1 WCU       0.170600
     12 C11         -0.6920     0.0000     1.1970 ca         1 WCU      -0.091000
     13 C12         -0.0030    -0.0050     2.3970 ca         1 WCU       0.022100
     14 C14          2.0830     0.0000     1.2020 ca         1 WCU      -0.156000
     15 O15          1.8230    -0.0270     3.6960 os         1 WCU      -0.326900
     16 C16          0.6910     0.3820     4.4850 c3         1 WCU       0.332200
     17 O17         -0.4410    -0.0170     3.6910 os         1 WCU      -0.327900
     18 H1          -0.5410     0.0590    -0.9370 ha         1 WCU       0.156000
     19 H3          -0.5820    -3.2470    -2.9580 ha         1 WCU       0.130000
     20 H4           0.1760    -1.8220    -1.0960 ha         1 WCU       0.148000
     21 H5           2.2850    -1.4210    -5.5440 ha         1 WCU       0.135000
     22 H6           4.2360    -0.0510    -3.6280 hn         1 WCU       0.424300
     23 H7           3.0640     1.1610    -4.0290 hn         1 WCU       0.424300
     24 H8           2.8930     0.5840    -1.3260 hn         1 WCU       0.456800
     25 H9          -1.7750     0.0000     1.1950 ha         1 WCU       0.146000
     26 H10          3.1660     0.0000     1.2030 ha         1 WCU       0.147000
     27 H11          0.6960     1.4590     4.6040 h2         1 WCU       0.070200
     28 H13          0.6870    -0.1530     5.4270 h2         1 WCU       0.070200
     29 H2           0.4720    -3.0480    -5.1750 ha         1 WCU       0.128000
@<TRIPOS>BOND
     1    15     2 1
     2    15    16 1
     3    14     2 ar
     4    14    11 ar
     5     2    13 ar
     6    10    11 1
     7    10     6 1
     8    11     1 ar
     9     6     5 ar
    10     6     7 ar
    11     5     4 ar
    12    13    17 1
    13    13    12 ar
    14     9     7 1
    15     7     8 ar
    16     1    12 ar
    17     4     3 ar
    18     8     3 ar
    19     1    18 1
    20     3    29 1
    21     4    19 1
    22     5    20 1
    23     8    21 1
    24     9    22 1
    25     9    23 1
    26    10    24 1
    27    12    25 1
    28    14    26 1
    29    16    27 1
    30    17    16 1
    31    16    28 1
@<TRIPOS>SUBSTRUCTURE
     1 WCU         1 TEMP              0 ****  ****    0 ROOT
