@<TRIPOS>MOLECULE
WCU
   29    31     1     0     0
SMALL
bcc


@<TRIPOS>ATOM
      1 C10          0.0000     0.0000     0.0000 ca         1 WCU      -0.148000
      2 C13          1.3900    -0.0100     2.4010 ca         1 WCU       0.083100
      3 C01          0.8060    -2.4170    -4.3600 ca         1 WCU      -0.149000
      4 C02          0.2160    -2.5310    -3.1150 ca         1 WCU      -0.057000
      5 C03          0.6400    -1.7300    -2.0700 ca         1 WCU      -0.189000
      6 C04          1.6580    -0.8110    -2.2690 ca         1 WCU       0.031600
      7 C05          2.2530    -0.6970    -3.5260 ca         1 WCU      -0.044400
      8 C06          1.8260    -1.5070    -4.5670 ca         1 WCU      -0.070000
      9 N07          3.2810     0.2300    -3.7340 nv         1 WCU      -0.552200
     10 N08          2.0880     0.0000    -1.2120 nu         1 WCU      -0.225000
     11 C09          1.3890     0.0000     0.0000 ca         1 WCU       0.018600
     12 C11         -0.6920     0.0000     1.1970 ca         1 WCU      -0.061000
     13 C12         -0.0030    -0.0050     2.3970 ca         1 WCU       0.031100
     14 C14          2.0830     0.0000     1.2020 ca         1 WCU      -0.130000
     15 O15          1.8230    -0.0270     3.6960 os         1 WCU      -0.315900
     16 C16          0.6910     0.3820     4.4850 c3         1 WCU       0.432200
     17 O17         -0.4410    -0.0170     3.6910 os         1 WCU      -0.314900
     18 H1          -0.5410     0.0590    -0.9370 ha         1 WCU       0.132000
     19 H3          -0.5820    -3.2470    -2.9580 ha         1 WCU       0.099000
     20 H4           0.1760    -1.8220    -1.0960 ha         1 WCU       0.134000
     21 H5           2.2850    -1.4210    -5.5440 ha         1 WCU       0.104000
     22 H6           4.2360    -0.0510    -3.6280 hn         1 WCU       0.268800
     23 H7           3.0640     1.1610    -4.0290 hn         1 WCU       0.268800
     24 H8           2.8930     0.5840    -1.3260 hn         1 WCU       0.290800
     25 H9          -1.7750     0.0000     1.1950 ha         1 WCU       0.112000
     26 H10          3.1660     0.0000     1.2030 ha         1 WCU       0.118000
     27 H11          0.6960     1.4590     4.6040 h2         1 WCU       0.013700
     28 H13          0.6870    -0.1530     5.4270 h2         1 WCU       0.013700
     29 H2           0.4720    -3.0480    -5.1750 ha         1 WCU       0.103000
@<TRIPOS>BOND
     1     1    11 ar  
     2     1    12 ar  
     3     1    18 1   
     4     2    13 ar  
     5     2    14 ar  
     6     2    15 1   
     7     3     4 ar  
     8     3     8 ar  
     9     3    29 1   
    10     4     5 ar  
    11     4    19 1   
    12     5     6 ar  
    13     5    20 1   
    14     6     7 ar  
    15     6    10 1   
    16     7     8 ar  
    17     7     9 1   
    18     8    21 1   
    19     9    22 1   
    20     9    23 1   
    21    10    11 1   
    22    10    24 1   
    23    11    14 ar  
    24    12    13 ar  
    25    12    25 1   
    26    13    17 1   
    27    14    26 1   
    28    15    16 1   
    29    16    17 1   
    30    16    27 1   
    31    16    28 1   
@<TRIPOS>SUBSTRUCTURE
     1 WCU         1 TEMP              0 ****  ****    0 ROOT
