@<TRIPOS>MOLECULE
molecule
   69    73     1     0     0
SMALL
bcc


@<TRIPOS>ATOM
      1 C01          0.0000     0.0000     0.0000 c3         1 WCX      -0.120100
      2 C02          1.5300     0.0000     0.0000 c3         1 WCX       0.166400
      3 O03          2.0070     0.0000     1.3470 os         1 WCX      -0.291900
      4 C04          2.1200     1.2040     1.9610 ca         1 WCX       0.272100
      5 C05          1.6790     2.3530     1.3250 ca         1 WCX      -0.249000
      6 C06          1.7980     3.5820     1.9580 ca         1 WCX       0.145800
      7 N09          1.0720     6.2600    -0.2270 nc         1 WCX      -0.564100
      8 C08          1.6560     5.1300     0.0470 cd         1 WCX       0.439700
      9 N07          1.3530     4.7410     1.3170 na         1 WCX      -0.110400
     10 C23          0.5200     5.7090     1.8540 ca         1 WCX      -0.135200
     11 C22         -0.1060     5.8680     3.0820 ca         1 WCX      -0.101000
     12 C21         -0.8930     6.9750     3.3140 ca         1 WCX      -0.125000
     13 C12         -1.0660     7.9360     2.3220 ca         1 WCX       0.150100
     14 O13         -1.8470     9.0230     2.5630 os         1 WCX      -0.319900
     15 C14         -1.8880    10.0300     1.5490 c3         1 WCX       0.134100
     16 C15         -2.2670    11.3730     2.1770 c3         1 WCX      -0.089400
     17 C16         -3.6670    11.2690     2.7870 c3         1 WCX       0.165800
     18 N17         -4.6320    10.9080     1.7410 n3         1 WCX      -0.732600
     19 C18         -6.0060    10.9350     2.2620 c3         1 WCX       0.154100
     20 C19         -4.3150     9.5990     1.1560 c3         1 WCX       0.165800
     21 C20         -2.9360     9.6540     0.4970 c3         1 WCX      -0.089400
     22 C11         -0.4500     7.7920     1.0940 ca         1 WCX      -0.170000
     23 C10          0.3520     6.6740     0.8480 ca         1 WCX       0.140400
     24 C24          2.3590     3.6650     3.2300 ca         1 WCX      -0.164000
     25 C25          2.7980     2.5390     3.8660 ca         1 WCX      -0.068000
     26 C26          2.6810     1.2930     3.2440 ca         1 WCX      -0.276600
     27 C27          3.1470     0.0760     3.9320 c          1 WCX       0.507700
     28 N28          3.6850     0.1640     5.1650 nz         1 WCX      -0.677400
     29 O29          3.0480    -1.0060     3.3870 o          1 WCX      -0.416100
     30 C30          2.0320    -1.2300    -0.7110 ca         1 WCX      -0.058300
     31 C31          2.3620    -2.3610     0.0130 ca         1 WCX      -0.112000
     32 C32          2.8220    -3.4890    -0.6390 ca         1 WCX      -0.097000
     33 C33          2.9530    -3.4870    -2.0160 ca         1 WCX      -0.115000
     34 C34          2.6230    -2.3570    -2.7390 ca         1 WCX      -0.073000
     35 C35          2.1580    -1.2310    -2.0870 ca         1 WCX      -0.169300
     36 C36          1.7930     0.0000    -2.8780 c3         1 WCX       0.671200
     37 F39          0.4470     0.3110    -2.6620 f          1 WCX      -0.220633
     38 F38          2.5910     1.0730    -2.4650 f          1 WCX      -0.220633
     39 F37          2.0040    -0.2410    -4.2400 f          1 WCX      -0.220633
     40 H011        -0.3610     0.8980    -0.4870 hc         1 WCX       0.063033
     41 H012        -0.3610    -0.8710    -0.5340 hc         1 WCX       0.063033
     42 H013        -0.3610    -0.0270     1.0210 hc         1 WCX       0.063033
     43 H02          1.8910     0.8850    -0.5110 h1         1 WCX       0.075700
     44 H05          1.1790     2.2840     0.3660 ha         1 WCX       0.185000
     45 H24          2.4500     4.6280     3.7160 ha         1 WCX       0.175000
     46 H11         -0.5870     8.5430     0.3260 ha         1 WCX       0.166000
     47 H21         -1.3800     7.0980     4.2740 ha         1 WCX       0.156000
     48 H14         -0.9170    10.1150     1.0760 h1         1 WCX       0.050700
     49 H151        -2.2620    12.1420     1.4140 hc         1 WCX       0.062200
     50 H152        -1.5530    11.6220     2.9540 hc         1 WCX       0.062200
     51 H201        -2.6960     8.6830     0.0810 hc         1 WCX       0.062200
     52 H202        -2.9410    10.3990    -0.2890 hc         1 WCX       0.062200
     53 H161        -3.9430    12.2250     3.2170 h1         1 WCX       0.041200
     54 H162        -3.6690    10.5070     3.5570 h1         1 WCX       0.041200
     55 H181        -6.1030    10.2100     3.0600 h1         1 WCX       0.034367
     56 H182        -6.6980    10.6910     1.4660 h1         1 WCX       0.034367
     57 H183        -6.2280    11.9240     2.6440 h1         1 WCX       0.034367
     58 H191        -5.0600     9.3490     0.4100 h1         1 WCX       0.041200
     59 H192        -4.3120     8.8480     1.9360 h1         1 WCX       0.041200
     60 H22          0.0240     5.1230     3.8580 ha         1 WCX       0.125000
     61 H25          3.2320     2.6120     4.8560 ha         1 WCX       0.116000
     62 H281         3.0120     0.5530     5.7950 hn         1 WCX       0.474133
     63 H282         3.9480    -0.7490     5.4800 hn         1 WCX       0.474133
     64 H31          2.2590    -2.3630     1.0910 ha         1 WCX       0.150000
     65 H32          3.0800    -4.3750    -0.0720 ha         1 WCX       0.145000
     66 H33          3.3160    -4.3710    -2.5260 ha         1 WCX       0.152000
     67 H34          2.7240    -2.3560    -3.8180 ha         1 WCX       0.164000
     68 H283         4.4860     0.7630     5.1380 hn         1 WCX       0.474133
     69 H08          2.2920     4.5790    -0.6360 h5         1 WCX       0.084800
@<TRIPOS>BOND
     1     1     2 1
     2     2     3 1
     3     2    30 1
     4     3     4 1
     5     4     5 ar
     6     4    26 ar
     7     5     6 ar
     8     6     9 1
     9     6    24 ar
    10     9     8 1
    11     9    10 1
    12     8     7 2
    13     7    23 1
    14    23    22 ar
    15    23    10 ar
    16    22    13 ar
    17    13    14 1
    18    13    12 ar
    19    14    15 1
    20    15    16 1
    21    15    21 1
    22    16    17 1
    23    17    18 1
    24    18    19 1
    25    18    20 1
    26    20    21 1
    27    12    11 ar
    28    11    10 ar
    29    24    25 ar
    30    25    26 ar
    31    26    27 1
    32    27    28 1
    33    27    29 2
    34    30    31 ar
    35    30    35 ar
    36    31    32 ar
    37    32    33 ar
    38    33    34 ar
    39    34    35 ar
    40    35    36 1
    41    36    39 1
    42    36    38 1
    43    36    37 1
    44     1    40 1
    45     1    41 1
    46     1    42 1
    47     2    43 1
    48     5    44 1
    49    24    45 1
    50     8    69 1
    51    22    46 1
    52    12    47 1
    53    15    48 1
    54    16    49 1
    55    16    50 1
    56    21    51 1
    57    21    52 1
    58    17    53 1
    59    17    54 1
    60    19    55 1
    61    19    56 1
    62    19    57 1
    63    20    58 1
    64    20    59 1
    65    11    60 1
    66    25    61 1
    67    28    62 1
    68    28    63 1
    69    31    64 1
    70    32    65 1
    71    33    66 1
    72    34    67 1
    73    68    28 1
@<TRIPOS>SUBSTRUCTURE
     1 WCX         1 TEMP              0 ****  ****    0 ROOT
