@<TRIPOS>MOLECULE
WCX
   69    73     1     0     0
SMALL
bcc


@<TRIPOS>ATOM
      1 C01          0.0000     0.0000     0.0000 c3         1 WCX      -0.041100
      2 C02          1.5300     0.0000     0.0000 c3         1 WCX       0.197400
      3 O03          2.0070     0.0000     1.3470 os         1 WCX      -0.264900
      4 C04          2.1200     1.2040     1.9610 ca         1 WCX       0.297100
      5 C05          1.6790     2.3530     1.3250 ca         1 WCX      -0.239000
      6 C06          1.7980     3.5820     1.9580 ca         1 WCX      -0.004200
      7 N09          1.0720     6.2600    -0.2270 nc         1 WCX      -0.474100
      8 C08          1.6560     5.1300     0.0470 cd         1 WCX       0.254700
      9 N07          1.3530     4.7410     1.3170 na         1 WCX       0.375600
     10 C23          0.5200     5.7090     1.8540 ca         1 WCX      -0.310200
     11 C22         -0.1060     5.8680     3.0820 ca         1 WCX      -0.059000
     12 C21         -0.8930     6.9750     3.3140 ca         1 WCX      -0.107000
     13 C12         -1.0660     7.9360     2.3220 ca         1 WCX       0.162100
     14 O13         -1.8470     9.0230     2.5630 os         1 WCX      -0.294900
     15 C14         -1.8880    10.0300     1.5490 c3         1 WCX       0.162100
     16 C15         -2.2670    11.3730     2.1770 c3         1 WCX      -0.041900
     17 C16         -3.6670    11.2690     2.7870 c3         1 WCX       0.155300
     18 N17         -4.6320    10.9080     1.7410 n3         1 WCX      -0.544600
     19 C18         -6.0060    10.9350     2.2620 c3         1 WCX       0.189100
     20 C19         -4.3150     9.5990     1.1560 c3         1 WCX       0.155300
     21 C20         -2.9360     9.6540     0.4970 c3         1 WCX      -0.041900
     22 C11         -0.4500     7.7920     1.0940 ca         1 WCX      -0.158000
     23 C10          0.3520     6.6740     0.8480 ca         1 WCX       0.116400
     24 C24          2.3590     3.6650     3.2300 ca         1 WCX      -0.133000
     25 C25          2.7980     2.5390     3.8660 ca         1 WCX      -0.033000
     26 C26          2.6810     1.2930     3.2440 ca         1 WCX      -0.304600
     27 C27          3.1470     0.0760     3.9320 c          1 WCX       0.357700
     28 N28          3.6850     0.1640     5.1650 nz         1 WCX       0.200600
     29 O29          3.0480    -1.0060     3.3870 o          1 WCX      -0.435100
     30 C30          2.0320    -1.2300    -0.7110 ca         1 WCX      -0.059300
     31 C31          2.3620    -2.3610     0.0130 ca         1 WCX      -0.094000
     32 C32          2.8220    -3.4890    -0.6390 ca         1 WCX      -0.060000
     33 C33          2.9530    -3.4870    -2.0160 ca         1 WCX      -0.087000
     34 C34          2.6230    -2.3570    -2.7390 ca         1 WCX      -0.033000
     35 C35          2.1580    -1.2310    -2.0870 ca         1 WCX      -0.197300
     36 C36          1.7930     0.0000    -2.8780 c3         1 WCX       0.641200
     37 F39          0.4470     0.3110    -2.6620 f          1 WCX      -0.204967
     38 F38          2.5910     1.0730    -2.4650 f          1 WCX      -0.204967
     39 F37          2.0040    -0.2410    -4.2400 f          1 WCX      -0.204967
     40 H011        -0.3610     0.8980    -0.4870 hc         1 WCX       0.031033
     41 H012        -0.3610    -0.8710    -0.5340 hc         1 WCX       0.031033
     42 H013        -0.3610    -0.0270     1.0210 hc         1 WCX       0.031033
     43 H02          1.8910     0.8850    -0.5110 h1         1 WCX       0.046700
     44 H05          1.1790     2.2840     0.3660 ha         1 WCX       0.166000
     45 H24          2.4500     4.6280     3.7160 ha         1 WCX       0.144000
     46 H11         -0.5870     8.5430     0.3260 ha         1 WCX       0.147000
     47 H21         -1.3800     7.0980     4.2740 ha         1 WCX       0.123000
     48 H14         -0.9170    10.1150     1.0760 h1         1 WCX       0.023700
     49 H151        -2.2620    12.1420     1.4140 hc         1 WCX       0.032450
     50 H152        -1.5530    11.6220     2.9540 hc         1 WCX       0.032450
     51 H201        -2.6960     8.6830     0.0810 hc         1 WCX       0.032450
     52 H202        -2.9410    10.3990    -0.2890 hc         1 WCX       0.032450
     53 H161        -3.9430    12.2250     3.2170 h1         1 WCX       0.014450
     54 H162        -3.6690    10.5070     3.5570 h1         1 WCX       0.014450
     55 H181        -6.1030    10.2100     3.0600 h1         1 WCX       0.001700
     56 H182        -6.6980    10.6910     1.4660 h1         1 WCX       0.001700
     57 H183        -6.2280    11.9240     2.6440 h1         1 WCX       0.001700
     58 H191        -5.0600     9.3490     0.4100 h1         1 WCX       0.014450
     59 H192        -4.3120     8.8480     1.9360 h1         1 WCX       0.014450
     60 H22          0.0240     5.1230     3.8580 ha         1 WCX       0.096000
     61 H25          3.2320     2.6120     4.8560 ha         1 WCX       0.084000
     62 H281         3.0120     0.5530     5.7950 hn         1 WCX       0.244133
     63 H282         3.9480    -0.7490     5.4800 hn         1 WCX       0.244133
     64 H31          2.2590    -2.3630     1.0910 ha         1 WCX       0.121000
     65 H32          3.0800    -4.3750    -0.0720 ha         1 WCX       0.112000
     66 H33          3.3160    -4.3710    -2.5260 ha         1 WCX       0.120000
     67 H34          2.7240    -2.3560    -3.8180 ha         1 WCX       0.132000
     68 H283         4.4860     0.7630     5.1380 hn         1 WCX       0.244133
     69 H08          2.2920     4.5790    -0.6360 h5         1 WCX       0.035800
@<TRIPOS>BOND
     1     1     2 1   
     2     1    40 1   
     3     1    41 1   
     4     1    42 1   
     5     2     3 1   
     6     2    30 1   
     7     2    43 1   
     8     3     4 1   
     9     4     5 ar  
    10     4    26 ar  
    11     5     6 ar  
    12     5    44 1   
    13     6     9 1   
    14     6    24 ar  
    15     7     8 2   
    16     7    23 1   
    17     8     9 1   
    18     8    69 1   
    19     9    10 1   
    20    10    11 ar  
    21    10    23 ar  
    22    11    12 ar  
    23    11    60 1   
    24    12    13 ar  
    25    12    47 1   
    26    13    14 1   
    27    13    22 ar  
    28    14    15 1   
    29    15    16 1   
    30    15    21 1   
    31    15    48 1   
    32    16    17 1   
    33    16    49 1   
    34    16    50 1   
    35    17    18 1   
    36    17    53 1   
    37    17    54 1   
    38    18    19 1   
    39    18    20 1   
    40    19    55 1   
    41    19    56 1   
    42    19    57 1   
    43    20    21 1   
    44    20    58 1   
    45    20    59 1   
    46    21    51 1   
    47    21    52 1   
    48    22    23 ar  
    49    22    46 1   
    50    24    25 ar  
    51    24    45 1   
    52    25    26 ar  
    53    25    61 1   
    54    26    27 1   
    55    27    28 1   
    56    27    29 2   
    57    28    62 1   
    58    28    63 1   
    59    28    68 1   
    60    30    31 ar  
    61    30    35 ar  
    62    31    32 ar  
    63    31    64 1   
    64    32    33 ar  
    65    32    65 1   
    66    33    34 ar  
    67    33    66 1   
    68    34    35 ar  
    69    34    67 1   
    70    35    36 1   
    71    36    37 1   
    72    36    38 1   
    73    36    39 1   
@<TRIPOS>SUBSTRUCTURE
     1 WCX         1 TEMP              0 ****  ****    0 ROOT
