@<TRIPOS>MOLECULE
molecule
   12    12     1     0     0
SMALL
bcc


@<TRIPOS>ATOM
      1 NAE          0.0000     0.0000     0.0000 nb         1 WDL      -0.828000
      2 CAH          1.3270     0.0000     0.0000 ca         1 WDL       0.963300
      3 OAB          2.0040    -0.0010    -1.1710 oh         1 WDL      -0.586633
      4 N6           1.9910     0.0000     1.1510 nb         1 WDL      -0.828000
      5 CAI          1.3270     0.0010     2.3000 ca         1 WDL       0.963300
      6 NAF         -0.0010     0.0000     2.3000 nb         1 WDL      -0.828000
      7 OAC          2.0030     0.0020     3.4720 oh         1 WDL      -0.586633
      8 CAG         -0.6640     0.0000     1.1500 ca         1 WDL       0.963300
      9 OAA         -2.0170    -0.0010     1.1490 oh         1 WDL      -0.586633
     10 HAB          2.1610     0.8880    -1.4440 ho         1 WDL       0.451000
     11 HAC          2.1600     0.8910     3.7440 ho         1 WDL       0.451000
     12 HAA         -2.3320     0.8880     1.1500 ho         1 WDL       0.451000
@<TRIPOS>BOND
     1     3     2 1
     2     2     1 ar
     3     2     4 ar
     4     5     7 1
     5     5     6 ar
     6     5     4 ar
     7     6     8 ar
     8     8     9 1
     9     8     1 ar
    10     3    10 1
    11     7    11 1
    12     9    12 1
@<TRIPOS>SUBSTRUCTURE
     1 WDL         1 TEMP              0 ****  ****    0 ROOT
