@<TRIPOS>MOLECULE
WDL
   12    12     1     0     0
SMALL
bcc


@<TRIPOS>ATOM
      1 NAE        -0.1850    0.2450    0.0040 nb        1 WDL     -0.810000
      2 CAH         1.1870    0.2350   -0.0670 ca        1 WDL      0.919300
      3 OAB         1.6860    0.2490   -1.3420 oh        1 WDL     -0.567300
      4 N6          2.0790    0.2140    0.9890 nb        1 WDL     -0.810000
      5 CAI         1.4560    0.2010    2.2120 ca        1 WDL      0.919300
      6 NAF         0.0950    0.2080    2.4570 nb        1 WDL     -0.810000
      7 OAC         2.3100    0.1800    3.2810 oh        1 WDL     -0.567300
      8 CAG        -0.6530    0.2300    1.3050 ca        1 WDL      0.919300
      9 OAA        -2.0060    0.2380    1.5110 oh        1 WDL     -0.567300
     10 HAB         2.6600    0.2410   -1.2960 ho        1 WDL      0.458000
     11 HAC         1.7830    0.1720    4.1030 ho        1 WDL      0.458000
     12 HAA        -2.4540    0.2540    0.6440 ho        1 WDL      0.458000
@<TRIPOS>BOND
     1    1    2 ar  
     2    1    8 ar  
     3    2    3 1   
     4    2    4 ar  
     5    3   10 1   
     6    4    5 ar  
     7    5    6 ar  
     8    5    7 1   
     9    6    8 ar  
    10    7   11 1   
    11    8    9 1   
    12    9   12 1   
@<TRIPOS>SUBSTRUCTURE
     1 WDL         1 TEMP              0 ****  ****    0 ROOT
