@<TRIPOS>MOLECULE
WDR
   42    44     1     0     0
SMALL
bcc


@<TRIPOS>ATOM
      1 CAA         0.0580   -0.0540   -0.1100 c         1 WDR      0.802500
      2 NAB         1.4400   -0.3350   -0.0930 n         1 WDR     -0.467100
      3 CAC         2.1930   -0.2520    1.0740 ca        1 WDR      0.104600
      4 CAD         1.5390   -0.0780    2.3170 ca        1 WDR     -0.187300
      5 CAE         0.0370    0.0630    2.3830 c3        1 WDR      0.354800
      6 CAF         2.2780   -0.0210    3.4960 ca        1 WDR     -0.056000
      7 CAG         3.6740   -0.1310    3.4740 ca        1 WDR     -0.045000
      8 CAH         4.4410   -0.0800    4.6910 cc        1 WDR     -0.267600
      9 CAI         5.5780   -0.8030    5.0230 cd        1 WDR      0.274000
     10 OAJ         5.9720   -0.4110    6.3230 os        1 WDR     -0.117100
     11 CAK         6.4020   -1.8160    4.3670 c3        1 WDR     -0.141400
     12 CAL         4.1970    0.7650    5.8720 cc        1 WDR      0.334600
     13 NAM         5.1510    0.5060    6.7900 nd        1 WDR     -0.362300
     14 CAN         3.1010    1.7410    6.0240 c3        1 WDR     -0.136400
     15 CAO         3.6030   -0.3620    1.0530 ca        1 WDR     -0.187000
     16 CAP         4.3200   -0.3040    2.2380 ca        1 WDR     -0.074000
     17 NAQ        -0.5930    0.2810    1.0890 n         1 WDR     -0.469800
     18 CAR        -2.0330    0.3510    1.0840 c3        1 WDR      0.075300
     19 OAS        -0.5290   -0.0650   -1.2160 o         1 WDR     -0.652500
     20 OAT        -0.5560   -1.0080    3.1270 os        1 WDR     -0.436600
     21 CAU        -0.3270   -2.3220    2.6230 c3        1 WDR      0.117400
     22 CAV        -1.0460   -3.2750    3.5740 c3        1 WDR      0.129400
     23 OAW        -2.3010   -3.5810    2.9870 oh        1 WDR     -0.600800
     24 HNAB        1.8960   -0.4070   -0.9740 hn        1 WDR      0.345500
     25 HAE        -0.2340    0.9590    3.0320 h2        1 WDR      0.095700
     26 HAF         1.7480    0.1000    4.4550 ha        1 WDR      0.150000
     27 HAK         6.8250   -2.5280    5.1200 hc        1 WDR      0.067033
     28 HAKA        5.7870   -2.3850    3.6260 hc        1 WDR      0.067033
     29 HAKB        7.2530   -1.3260    3.8290 hc        1 WDR      0.067033
     30 HAN         2.8180    2.1480    5.0210 hc        1 WDR      0.060033
     31 HANA        3.3980    2.5910    6.6880 hc        1 WDR      0.060033
     32 HANB        2.2070    1.2390    6.4750 hc        1 WDR      0.060033
     33 HAO         4.1340   -0.4930    0.0990 ha        1 WDR      0.142000
     34 HAP         5.4180   -0.3900    2.2120 ha        1 WDR      0.139000
     35 HAR        -2.3990    0.5830    0.0480 h1        1 WDR      0.057700
     36 HARA       -2.4830   -0.6190    1.4310 h1        1 WDR      0.057700
     37 HARB       -2.3460    1.1690    1.7850 h1        1 WDR      0.057700
     38 HAU        -0.7430   -2.4190    1.5850 h1        1 WDR      0.051200
     39 HAUA        0.7740   -2.5330    2.6170 h1        1 WDR      0.051200
     40 HAV        -0.4490   -4.2200    3.6830 h1        1 WDR      0.038200
     41 HAVA       -1.1820   -2.7970    4.5800 h1        1 WDR      0.038200
     42 HOAW       -2.8420   -3.9800    3.6780 ho        1 WDR      0.403000
@<TRIPOS>BOND
     1    1    2 1   
     2    1   17 1   
     3    1   19 2   
     4    2    3 1   
     5    2   24 1   
     6    3    4 ar  
     7    3   15 ar  
     8    4    5 1   
     9    4    6 ar  
    10    5   17 1   
    11    5   20 1   
    12    5   25 1   
    13    6    7 ar  
    14    6   26 1   
    15    7    8 1   
    16    7   16 ar  
    17    8    9 2   
    18    8   12 1   
    19    9   10 1   
    20    9   11 1   
    21   10   13 1   
    22   11   27 1   
    23   11   28 1   
    24   11   29 1   
    25   12   13 2   
    26   12   14 1   
    27   14   30 1   
    28   14   31 1   
    29   14   32 1   
    30   15   16 ar  
    31   15   33 1   
    32   16   34 1   
    33   17   18 1   
    34   18   35 1   
    35   18   36 1   
    36   18   37 1   
    37   20   21 1   
    38   21   22 1   
    39   21   38 1   
    40   21   39 1   
    41   22   23 1   
    42   22   40 1   
    43   22   41 1   
    44   23   42 1   
@<TRIPOS>SUBSTRUCTURE
     1 WDR         1 TEMP              0 ****  ****    0 ROOT
