@<TRIPOS>MOLECULE
WDS
   59    62     1     0     0
SMALL
bcc


@<TRIPOS>ATOM
      1 C29          0.0000     0.0000     0.0000 ca         1 WDS      -0.067000
      2 C31          1.3860     0.0000     0.0000 ca         1 WDS      -0.213300
      3 C4          -3.6400    -0.6700     9.3580 ca         1 WDS      -0.025000
      4 C9          -3.8330     0.6260     9.7440 ca         1 WDS      -0.074000
      5 C24         -0.6600    -0.0010     1.2190 ca         1 WDS      -0.199300
      6 C6          -2.7540     1.4290     7.7310 ca         1 WDS      -0.122000
      7 C30          2.0590     0.0000     1.2070 ca         1 WDS       0.404200
      8 C1          -2.9950    -0.9480     8.1530 ca         1 WDS      -0.202600
      9 C11         -3.3940     1.6820     8.9380 ca         1 WDS      -0.103600
     10 C2          -2.5450     0.1070     7.3280 ca         1 WDS       0.159400
     11 C20          0.0800    -0.0060     2.3850 ca         1 WDS       0.371600
     12 C3          -2.7620    -2.3290     7.7030 c          1 WDS       0.627100
     13 C10         -1.7300    -1.4240     5.7810 cc         1 WDS       0.363800
     14 C26         -0.6820     5.0450     8.3640 c3         1 WDS      -0.034400
     15 C27         -1.6700     6.1960     8.6860 c3         1 WDS      -0.034400
     16 C21         -1.6510     3.8840     8.0310 c3         1 WDS       0.042500
     17 C22         -2.8380     5.4650     9.3810 c3         1 WDS       0.042500
     18 C28          1.3930    -7.6420     6.0040 c3         1 WDS       0.006900
     19 C16         -0.6270    -0.0070     3.7160 c3         1 WDS       0.054400
     20 C23          1.1240    -6.2270     6.5200 c3         1 WDS      -0.027400
     21 C19         -0.2390    -5.7490     6.0150 c3         1 WDS      -0.022400
     22 C15         -0.5070    -4.3340     6.5310 c3         1 WDS      -0.052400
     23 N25          1.3980    -0.0010     2.3490 nb         1 WDS      -0.559000
     24 N5          -1.9260    -0.1860     6.1600 nd         1 WDS      -0.577100
     25 N7          -2.1280    -2.5020     6.5200 n          1 WDS       0.056700
     26 N17         -2.7790     4.0540     8.9650 n          1 WDS      -0.155800
     27 O8          -3.1260    -3.2800     8.3690 o          1 WDS      -0.655500
     28 O18         -4.5570     3.3490    10.0940 o          1 WDS      -0.642100
     29 S13         -0.9160    -1.7140     4.2450 ss         1 WDS      -0.287300
     30 H1          -0.5540     0.0020    -0.9310 ha         1 WDS       0.111000
     31 H2           1.9350     0.0010    -0.9340 ha         1 WDS       0.115000
     32 H3          -3.9840    -1.4810     9.9890 ha         1 WDS       0.128000
     33 H4          -4.3310     0.8380    10.6820 ha         1 WDS       0.129000
     34 H5          -1.7430    -0.0010     1.2570 ha         1 WDS       0.120000
     35 H6          -2.4150     2.2500     7.1100 ha         1 WDS       0.144000
     36 H7           3.1420     0.0020     1.2160 h4         1 WDS      -0.017900
     37 H8          -0.0750     4.8050     9.2290 hc         1 WDS       0.025450
     38 H9          -0.0680     5.2930     7.5060 hc         1 WDS       0.025450
     39 H10         -2.0080     6.6750     7.7750 hc         1 WDS       0.025450
     40 H11         -1.2150     6.9130     9.3590 hc         1 WDS       0.025450
     41 H12         -1.9960     3.9640     7.0070 h1         1 WDS       0.027700
     42 H13         -1.1660     2.9300     8.1990 h1         1 WDS       0.027700
     43 H14         -2.7280     5.5360    10.4560 h1         1 WDS       0.027700
     44 H15         -3.7800     5.9000     9.0710 h1         1 WDS       0.027700
     45 H16          1.3910    -7.6370     4.9210 hc         1 WDS       0.001033
     46 H17          2.3580    -7.9790     6.3620 hc         1 WDS       0.001033
     47 H18          0.6200    -8.3100     6.3640 hc         1 WDS       0.001033
     48 H19         -0.0130     0.5000     4.4510 h1         1 WDS       0.061700
     49 H20         -1.5760     0.5070     3.6210 h1         1 WDS       0.061700
     50 H21          1.1260    -6.2310     7.6030 hc         1 WDS       0.014200
     51 H22          1.8970    -5.5580     6.1600 hc         1 WDS       0.014200
     52 H23         -0.2410    -5.7450     4.9310 hc         1 WDS       0.017200
     53 H24         -1.0120    -6.4170     6.3740 hc         1 WDS       0.017200
     54 H25         -0.5050    -4.3380     7.6140 hc         1 WDS       0.031200
     55 H26          0.2650    -3.6660     6.1710 hc         1 WDS       0.031200
     56 H27         -1.8730    -3.8520     4.9420 h1         1 WDS       0.055200
     57 H28         -2.6440    -4.5250     6.3840 h1         1 WDS       0.055200
     58 C14         -3.6170     3.0800     9.3710 c          1 WDS       0.618700
     59 C12         -1.8710    -3.8570     6.0250 c3         1 WDS       0.003000
@<TRIPOS>BOND
     1     1     2 ar  
     2     1     5 ar  
     3     1    30 1   
     4     2     7 ar  
     5     2    31 1   
     6     3     4 ar  
     7     3     8 ar  
     8     3    32 1   
     9     4     9 ar  
    10     4    33 1   
    11     5    11 ar  
    12     5    34 1   
    13     6     9 ar  
    14     6    10 ar  
    15     6    35 1   
    16     7    23 ar  
    17     7    36 1   
    18     8    10 ar  
    19     8    12 1   
    20     9    58 1   
    21    10    24 1   
    22    11    19 1   
    23    11    23 ar  
    24    12    25 1   
    25    12    27 2   
    26    13    24 2   
    27    13    25 1   
    28    13    29 1   
    29    14    15 1   
    30    14    16 1   
    31    14    37 1   
    32    14    38 1   
    33    15    17 1   
    34    15    39 1   
    35    15    40 1   
    36    16    26 1   
    37    16    41 1   
    38    16    42 1   
    39    17    26 1   
    40    17    43 1   
    41    17    44 1   
    42    18    20 1   
    43    18    45 1   
    44    18    46 1   
    45    18    47 1   
    46    19    29 1   
    47    19    48 1   
    48    19    49 1   
    49    20    21 1   
    50    20    50 1   
    51    20    51 1   
    52    21    22 1   
    53    21    52 1   
    54    21    53 1   
    55    22    54 1   
    56    22    55 1   
    57    22    59 1   
    58    25    59 1   
    59    26    58 1   
    60    28    58 2   
    61    56    59 1   
    62    57    59 1   
@<TRIPOS>SUBSTRUCTURE
     1 WDS         1 TEMP              0 ****  ****    0 ROOT
