@<TRIPOS>MOLECULE
molecule
   28    29     1     0     0
SMALL
bcc


@<TRIPOS>ATOM
      1 C17          0.0000     0.0000     0.0000 ca         1 WDT      -0.068000
      2 C14          1.3830     0.0000     0.0000 ca         1 WDT      -0.147500
      3 C15         -0.6920    -0.0010     1.1960 ca         1 WDT      -0.147500
      4 C9           3.8640     3.6660     4.2960 ca         1 WDT      -0.069000
      5 C10          2.0730     0.0000     1.1970 ca         1 WDT      -0.028500
      6 C11         -0.0010    -0.0060     2.3940 ca         1 WDT      -0.028500
      7 C4           3.6590     2.3440     3.9480 ca         1 WDT      -0.062000
      8 C3           1.5870     2.3400     5.1480 ca         1 WDT      -0.106000
      9 C12          2.9350     4.3280     5.0760 ca         1 WDT      -0.134200
     10 C8           1.7930     3.6660     5.5040 ca         1 WDT       0.161100
     11 C5           1.3810    -0.0010     2.3950 ca         1 WDT      -0.302500
     12 C1           2.5220     1.6820     4.3730 ca         1 WDT      -0.235500
     13 O19          2.3370     6.3240     6.1420 o          1 WDT      -0.189000
     14 O18          4.1590     6.3210     5.0790 o          1 WDT      -0.189000
     15 O13          0.8740     4.3160     6.2670 oh         1 WDT      -0.470100
     16 S2           2.2610    -0.0000     3.9210 sy         1 WDT       1.286600
     17 H1          -0.5410     0.0020    -0.9380 ha         1 WDT       0.138000
     18 H2           1.9250     0.0000    -0.9380 ha         1 WDT       0.141000
     19 H3          -1.7750    -0.0030     1.1950 ha         1 WDT       0.141000
     20 H4           4.7560     4.1810     3.9620 ha         1 WDT       0.176000
     21 H5           3.1560     0.0020     1.1980 ha         1 WDT       0.150000
     22 H6          -0.5430    -0.0070     3.3310 ha         1 WDT       0.150000
     23 H7           4.3890     1.8260     3.3380 ha         1 WDT       0.168000
     24 H8           0.6960     1.8220     5.4810 ha         1 WDT       0.170000
     25 H9           0.0120     4.1710     5.9130 ho         1 WDT       0.433000
     26 N16          3.1570     5.7410     5.4540 no         1 WDT       0.292200
     27 O6           1.3790    -0.5460     4.8920 o          1 WDT      -0.613800
     28 O7           3.5450    -0.5450     3.6440 o          1 WDT      -0.613800
@<TRIPOS>BOND
     1    27    16 2
     2    16    28 2
     3    16    11 1
     4    16    12 1
     5     5    11 ar
     6     5     2 ar
     7    11     6 ar
     8     2     1 ar
     9     6     3 ar
    10     8    12 ar
    11     8    10 ar
    12    12     7 ar
    13     1     3 ar
    14    15    10 1
    15    10     9 ar
    16     7     4 ar
    17     9     4 ar
    18     9    26 1
    19    26    14 1
    20    26    13 1
    21     1    17 1
    22     2    18 1
    23     3    19 1
    24     4    20 1
    25     5    21 1
    26     6    22 1
    27     7    23 1
    28     8    24 1
    29    15    25 1
@<TRIPOS>SUBSTRUCTURE
     1 WDT         1 TEMP              0 ****  ****    0 ROOT
