@<TRIPOS>MOLECULE
WDT
   28    29     1     0     0
SMALL
bcc


@<TRIPOS>ATOM
      1 C17          0.0000     0.0000     0.0000 ca         1 WDT      -0.042000
      2 C14          1.3830     0.0000     0.0000 ca         1 WDT      -0.129000
      3 C15         -0.6920    -0.0010     1.1960 ca         1 WDT      -0.129000
      4 C9           3.8640     3.6660     4.2960 ca         1 WDT      -0.012000
      5 C10          2.0730     0.0000     1.1970 ca         1 WDT       0.002000
      6 C11         -0.0010    -0.0060     2.3940 ca         1 WDT       0.002000
      7 C4           3.6590     2.3440     3.9480 ca         1 WDT      -0.052000
      8 C3           1.5870     2.3400     5.1480 ca         1 WDT      -0.099000
      9 C12          2.9350     4.3280     5.0760 ca         1 WDT      -0.441200
     10 C8           1.7930     3.6660     5.5040 ca         1 WDT       0.201100
     11 C5           1.3810    -0.0010     2.3950 ca         1 WDT      -0.151500
     12 C1           2.5220     1.6820     4.3730 ca         1 WDT      -0.060500
     13 O19          2.3370     6.3240     6.1420 o          1 WDT      -0.439500
     14 O18          4.1590     6.3210     5.0790 o          1 WDT      -0.439500
     15 O13          0.8740     4.3160     6.2670 oh         1 WDT      -0.449100
     16 S2           2.2610    -0.0000     3.9210 sy         1 WDT       0.960600
     17 H1          -0.5410     0.0020    -0.9380 ha         1 WDT       0.104000
     18 H2           1.9250     0.0000    -0.9380 ha         1 WDT       0.111500
     19 H3          -1.7750    -0.0030     1.1950 ha         1 WDT       0.111500
     20 H4           4.7560     4.1810     3.9620 ha         1 WDT       0.139000
     21 H5           3.1560     0.0020     1.1980 ha         1 WDT       0.121500
     22 H6          -0.5430    -0.0070     3.3310 ha         1 WDT       0.121500
     23 H7           4.3890     1.8260     3.3380 ha         1 WDT       0.136000
     24 H8           0.6960     1.8220     5.4810 ha         1 WDT       0.141000
     25 H9           0.0120     4.1710     5.9130 ho         1 WDT       0.412000
     26 N16          3.1570     5.7410     5.4540 no         1 WDT       1.046200
     27 O6           1.3790    -0.5460     4.8920 o          1 WDT      -0.582800
     28 O7           3.5450    -0.5450     3.6440 o          1 WDT      -0.582800
@<TRIPOS>BOND
     1     1     2 ar  
     2     1     3 ar  
     3     1    17 1   
     4     2     5 ar  
     5     2    18 1   
     6     3     6 ar  
     7     3    19 1   
     8     4     7 ar  
     9     4     9 ar  
    10     4    20 1   
    11     5    11 ar  
    12     5    21 1   
    13     6    11 ar  
    14     6    22 1   
    15     7    12 ar  
    16     7    23 1   
    17     8    10 ar  
    18     8    12 ar  
    19     8    24 1   
    20     9    10 ar  
    21     9    26 1   
    22    10    15 1   
    23    11    16 1   
    24    12    16 1   
    25    13    26 1   
    26    14    26 1   
    27    15    25 1   
    28    16    27 2   
    29    16    28 2   
@<TRIPOS>SUBSTRUCTURE
     1 WDT         1 TEMP              0 ****  ****    0 ROOT
