@<TRIPOS>MOLECULE
molecule
   28    29     1     0     0
SMALL
bcc


@<TRIPOS>ATOM
      1 C15          0.0000     0.0000     0.0000 ca         1 WDU      -0.102000
      2 C16         -0.0020    -0.0000     2.3940 ca         1 WDU      -0.102000
      3 C17          1.3820     0.0000     0.0000 ca         1 WDU      -0.124000
      4 C18          1.3800    -0.0000     2.3960 ca         1 WDU      -0.124000
      5 C14         -0.6920    -0.0000     1.1970 ca         1 WDU      -0.121300
      6 C19          2.0730     0.0000     1.1990 ca         1 WDU       0.037400
      7 C2          -5.8570    -3.4370     1.1920 cc         1 WDU      -0.028900
      8 C1          -4.5030    -3.0220     1.1920 cc         1 WDU       0.267800
      9 C5          -5.8220    -4.7910     1.1980 cd         1 WDU      -0.220500
     10 C4          -4.0110    -1.6300     1.1930 c          1 WDU       0.599600
     11 C11         -2.2000    -0.0020     1.1960 c3         1 WDU       0.162300
     12 N3          -3.7650    -4.1150     1.1940 nd         1 WDU      -0.455800
     13 N7          -4.5150    -5.1570     1.1970 na         1 WDU       0.070400
     14 N8          -2.6870    -1.3840     1.1940 ns         1 WDU      -0.569900
     15 N10         -6.9900    -5.7000     1.2050 no         1 WDU       0.323200
     16 O13         -6.8210    -6.9070     1.2110 o          1 WDU      -0.178500
     17 O9          -4.8020    -0.7070     1.1930 o          1 WDU      -0.579100
     18 O12         -8.1180    -5.2430     1.2060 o          1 WDU      -0.178500
     19 Cl1          3.8090     0.0000     1.2010 cl         1 WDU      -0.102400
     20 H1          -0.5410    -0.0000    -0.9380 ha         1 WDU       0.142500
     21 H2          -0.5450    -0.0000     3.3320 ha         1 WDU       0.142500
     22 H3           1.9240     0.0000    -0.9380 ha         1 WDU       0.148000
     23 H4           1.9200     0.0000     3.3350 ha         1 WDU       0.148000
     24 H5          -2.5620     0.5080     2.0810 h1         1 WDU       0.063700
     25 H6          -2.5600     0.5100     0.3110 h1         1 WDU       0.063700
     26 H8          -2.0360    -2.1430     1.1580 hn         1 WDU       0.330500
     27 H7          -4.1850    -6.1010     1.1990 hn         1 WDU       0.364700
     28 Cl6         -7.2660    -2.4230     1.1910 cl         1 WDU       0.020600
@<TRIPOS>BOND
     1     1     3 ar
     2     1     5 ar
     3     3     6 ar
     4    11     5 1
     5    11    14 1
     6     5     2 ar
     7    17    10 2
     8    14    10 1
     9     6    19 1
    10     6     4 ar
    11    10     8 1
    12     2     4 ar
    13     8    12 2
    14     8     7 1
    15    12    13 1
    16     7    28 1
    17     7     9 2
    18    13     9 1
    19     9    15 1
    20    15    16 1
    21    15    18 1
    22     1    20 1
    23     2    21 1
    24     3    22 1
    25     4    23 1
    26    11    24 1
    27    11    25 1
    28    14    26 1
    29    13    27 1
@<TRIPOS>SUBSTRUCTURE
     1 WDU         1 TEMP              0 ****  ****    0 ROOT
