@<TRIPOS>MOLECULE
WDU
   28    29     1     0     0
SMALL
bcc


@<TRIPOS>ATOM
      1 C15          0.0000     0.0000     0.0000 ca         1 WDU      -0.072500
      2 C16         -0.0020    -0.0000     2.3940 ca         1 WDU      -0.072500
      3 C17          1.3820     0.0000     0.0000 ca         1 WDU      -0.100000
      4 C18          1.3800    -0.0000     2.3960 ca         1 WDU      -0.100000
      5 C14         -0.6920    -0.0000     1.1970 ca         1 WDU      -0.129300
      6 C19          2.0730     0.0000     1.1990 ca         1 WDU      -0.027600
      7 C2          -5.8570    -3.4370     1.1920 cc         1 WDU      -0.087900
      8 C1          -4.5030    -3.0220     1.1920 cc         1 WDU       0.245800
      9 C5          -5.8220    -4.7910     1.1980 cd         1 WDU      -0.703500
     10 C4          -4.0110    -1.6300     1.1930 c          1 WDU       0.517600
     11 C11         -2.2000    -0.0020     1.1960 c3         1 WDU       0.110300
     12 N3          -3.7650    -4.1150     1.1940 nd         1 WDU      -0.602800
     13 N7          -4.5150    -5.1570     1.1970 na         1 WDU       0.643400
     14 N8          -2.6870    -1.3840     1.1940 ns         1 WDU      -0.174900
     15 N10         -6.9900    -5.7000     1.2050 no         1 WDU       1.097200
     16 O13         -6.8210    -6.9070     1.2110 o          1 WDU      -0.443500
     17 O9          -4.8020    -0.7070     1.1930 o          1 WDU      -0.642100
     18 O12         -8.1180    -5.2430     1.2060 o          1 WDU      -0.443500
     19 Cl1          3.8090     0.0000     1.2010 cl         1 WDU      -0.020400
     20 H1          -0.5410    -0.0000    -0.9380 ha         1 WDU       0.111500
     21 H2          -0.5450    -0.0000     3.3320 ha         1 WDU       0.111500
     22 H3           1.9240     0.0000    -0.9380 ha         1 WDU       0.117000
     23 H4           1.9200     0.0000     3.3350 ha         1 WDU       0.117000
     24 H5          -2.5620     0.5080     2.0810 h1         1 WDU       0.031700
     25 H6          -2.5600     0.5100     0.3110 h1         1 WDU       0.031700
     26 H8          -2.0360    -2.1430     1.1580 hn         1 WDU       0.189500
     27 H7          -4.1850    -6.1010     1.1990 hn         1 WDU       0.155700
     28 Cl6         -7.2660    -2.4230     1.1910 cl         1 WDU       0.137600
@<TRIPOS>BOND
     1     1     3 ar  
     2     1     5 ar  
     3     1    20 1   
     4     2     4 ar  
     5     2     5 ar  
     6     2    21 1   
     7     3     6 ar  
     8     3    22 1   
     9     4     6 ar  
    10     4    23 1   
    11     5    11 1   
    12     6    19 1   
    13     7     8 1   
    14     7     9 2   
    15     7    28 1   
    16     8    10 1   
    17     8    12 2   
    18     9    13 1   
    19     9    15 1   
    20    10    14 1   
    21    10    17 2   
    22    11    14 1   
    23    11    24 1   
    24    11    25 1   
    25    12    13 1   
    26    13    27 1   
    27    14    26 1   
    28    15    16 1   
    29    15    18 1   
@<TRIPOS>SUBSTRUCTURE
     1 WDU         1 TEMP              0 ****  ****    0 ROOT
