@<TRIPOS>MOLECULE
WDV
   45    45     1     0     0
SMALL
bcc


@<TRIPOS>ATOM
      1 C8          0.4040    1.0660   -0.7060 ca        1 WDV     -0.096000
      2 C11         1.6120    0.4110   -0.4710 ca        1 WDV     -0.130000
      3 C4         -0.5970    1.0940    0.2580 ca        1 WDV     -0.163000
      4 C24        -2.1990   -5.0350    9.6230 ca        1 WDV     -0.022000
      5 C22        -2.6550   -5.2440    8.3280 ca        1 WDV     -0.224000
      6 C3          0.8260   -0.2010    1.7440 ca        1 WDV     -0.160000
      7 C19        -2.2310   -2.6210    9.2320 ca        1 WDV     -0.026000
      8 C7          1.8060   -0.2210    0.7570 ca        1 WDV     -0.125300
      9 C18        -2.6910   -2.8240    7.9350 ca        1 WDV     -0.162300
     10 C1         -0.4050    0.4640    1.5110 ca        1 WDV      0.177600
     11 C21        -1.9890   -3.7220   10.0730 ca        1 WDV     -0.214200
     12 C20        -2.9010   -4.1460    7.4870 ca        1 WDV      0.175100
     13 C5         -2.4050    1.3730    2.5950 c2        1 WDV      0.056000
     14 C6          0.0210   -1.5530    4.9470 c2        1 WDV     -0.337000
     15 C9         -3.2740    1.4500    3.6180 c2        1 WDV     -0.311000
     16 C10        -0.9210   -1.1990    5.8380 c2        1 WDV      0.034000
     17 C17        -2.9890   -1.6520    7.0400 c3        1 WDV      0.241100
     18 C12         3.1110   -0.9630    1.0250 c3        1 WDV      0.685200
     19 N2         -1.3950    0.4190    2.4930 nh        1 WDV     -0.644400
     20 N13        -2.2630   -1.5920    5.7960 nh        1 WDV     -0.729000
     21 N25        -1.5030   -3.4910   11.4560 no        1 WDV      0.319200
     22 O27        -1.3270   -2.3620   11.8310 o         1 WDV     -0.209500
     23 O26        -1.3000   -4.4390   12.1670 o         1 WDV     -0.209500
     24 O23        -3.3540   -4.3010    6.2030 oh        1 WDV     -0.493100
     25 F14         4.1920   -0.4980    0.3170 f         1 WDV     -0.238633
     26 F15         3.5300   -0.9320    2.3330 f         1 WDV     -0.238633
     27 F16         3.0670   -2.3040    0.7230 f         1 WDV     -0.238633
     28 H1          0.2370    1.5650   -1.6730 ha        1 WDV      0.140000
     29 H2          2.4020    0.3940   -1.2360 ha        1 WDV      0.152000
     30 H3         -1.5440    1.6020    0.0250 ha        1 WDV      0.141000
     31 H5         -2.8240   -6.2690    7.9630 ha        1 WDV      0.152000
     32 H6          1.0160   -0.7060    2.7070 ha        1 WDV      0.154000
     33 H7         -2.0580   -1.5950    9.6050 ha        1 WDV      0.175000
     34 H8         -0.1430   -2.2830    4.1450 ha        1 WDV      0.124000
     35 H9         -2.4740    2.0780    1.7440 h4        1 WDV      0.137000
     36 H10         1.0280   -1.1240    4.9980 ha        1 WDV      0.124000
     37 H11        -1.1740   -0.0980    3.3210 hn        1 WDV      0.442800
     38 H12        -3.2560    0.7820    4.4880 ha        1 WDV      0.127500
     39 H13        -4.0670    2.2060    3.6150 ha        1 WDV      0.127500
     40 H14        -2.4380   -2.3860    5.2100 hn        1 WDV      0.402800
     41 H15        -0.6900   -0.4740    6.6440 h4        1 WDV      0.137000
     42 H16        -2.8090   -0.6950    7.6090 h1        1 WDV      0.069200
     43 H17        -4.0860   -1.7010    6.7690 h1        1 WDV      0.069200
     44 H19        -3.4760   -5.2490    6.0310 ho        1 WDV      0.435000
     45 H4         -2.0020   -5.8920   10.2910 ha        1 WDV      0.175000
@<TRIPOS>BOND
     1    1    2 ar  
     2    1    3 ar  
     3    1   28 1   
     4    2    8 ar  
     5    2   29 1   
     6    3   10 ar  
     7    3   30 1   
     8    4    5 ar  
     9    4   11 ar  
    10    4   45 1   
    11    5   12 ar  
    12    5   31 1   
    13    6    8 ar  
    14    6   10 ar  
    15    6   32 1   
    16    7    9 ar  
    17    7   11 ar  
    18    7   33 1   
    19    8   18 1   
    20    9   12 ar  
    21    9   17 1   
    22   10   19 1   
    23   11   21 1   
    24   12   24 1   
    25   13   15 2   
    26   13   19 1   
    27   13   35 1   
    28   14   16 2   
    29   14   34 1   
    30   14   36 1   
    31   15   38 1   
    32   15   39 1   
    33   16   20 1   
    34   16   41 1   
    35   17   20 1   
    36   17   42 1   
    37   17   43 1   
    38   18   25 1   
    39   18   26 1   
    40   18   27 1   
    41   19   37 1   
    42   20   40 1   
    43   21   22 1   
    44   21   23 1   
    45   24   44 1   
@<TRIPOS>SUBSTRUCTURE
     1 WDV         1 TEMP              0 ****  ****    0 ROOT
