@<TRIPOS>MOLECULE
molecule
   45    47     1     0     0
SMALL
bcc


@<TRIPOS>ATOM
      1 C8           0.0000     0.0000     0.0000 ca         1 WDV      -0.127000
      2 C11          1.3830     0.0000     0.0000 ca         1 WDV      -0.071000
      3 C4          -0.6920     0.0070     1.1950 ca         1 WDV      -0.078000
      4 C24         -2.5100    -4.7420     8.8640 ca         1 WDV      -0.157000
      5 C22         -3.3680    -4.7040     7.7810 ca         1 WDV       0.003000
      6 C3           1.3920     0.0000     2.3940 ca         1 WDV      -0.069000
      7 C19         -2.1220    -2.3870     8.6450 ca         1 WDV      -0.083000
      8 C7           2.0780     0.0000     1.1960 ca         1 WDV      -0.172300
      9 C18         -2.9700    -2.3460     7.5550 ca         1 WDV      -0.019300
     10 C1           0.0030     0.0070     2.3980 ca         1 WDV      -0.007400
     11 C21         -1.8890    -3.5850     9.2950 ca         1 WDV      -0.201200
     12 C20         -3.6000    -3.5050     7.1230 ca         1 WDV      -0.053900
     13 C5          -2.1460     0.0160     3.3810 c3         1 WDV      -0.195700
     14 C6          -0.3000    -1.1350     4.4440 c3         1 WDV      -0.195700
     15 C9          -2.8710     0.0980     4.7270 c3         1 WDV      -0.257700
     16 C10         -1.0260    -1.0520     5.7900 c3         1 WDV      -0.257700
     17 C17         -3.2090    -1.0440     6.8350 c3         1 WDV      -0.002900
     18 C12          3.5850    -0.0070     1.1910 c3         1 WDV       0.676200
     19 N2          -0.6940     0.0080     3.6090 nh         1 WDV       0.199000
     20 N13         -2.4770    -1.0450     5.5620 n3         1 WDV       0.042400
     21 N25         -0.9740    -3.6020    10.4590 no         1 WDV       0.355200
     22 O27         -0.0070    -2.6980    10.3430 o          1 WDV      -0.162500
     23 O26         -1.3570    -4.4310    11.0300 o          1 WDV      -0.162500
     24 O23         -4.8810    -4.2220     7.3320 oh         1 WDV      -0.458100
     25 F14          4.0510     0.6520     0.0490 f          1 WDV      -0.219967
     26 F15          4.0580     0.6480     2.3330 f          1 WDV      -0.219967
     27 F16          4.0450    -1.3290     1.1870 f          1 WDV      -0.219967
     28 H1          -0.5420     0.0000    -0.9380 ha         1 WDV       0.148000
     29 H2           1.9250    -0.0060    -0.9380 ha         1 WDV       0.153000
     30 H3          -1.7750     0.0070     1.1940 ha         1 WDV       0.163000
     31 H5          -3.8540    -5.6110     7.4430 ha         1 WDV       0.147000
     32 H6           1.9370     0.0000     3.3300 ha         1 WDV       0.159000
     33 H7          -1.6300    -1.4830     8.9830 ha         1 WDV       0.183000
     34 H8          -2.5280     0.7930     2.7300 h1         1 WDV       0.035200
     35 H9          -1.0870     0.1740     3.5430 h1         1 WDV       0.035200
     36 H10          0.7610    -1.2570     4.6250 h1         1 WDV       0.035200
     37 H11         -0.4660    -0.2130     3.9000 h1         1 WDV       0.035200
     38 H12         -3.9320     0.2200     4.5470 h1         1 WDV       0.025950
     39 H13         -2.7050    -0.8240     5.2710 h1         1 WDV       0.025950
     40 H14         -2.0850    -1.2110     5.6270 h1         1 WDV       0.025950
     41 H15         -0.6440    -1.8290     6.4410 h1         1 WDV       0.025950
     42 H16         -3.7770    -1.2040     5.9270 h1         1 WDV       0.191700
     43 H17         -2.2720    -0.5420     6.6250 h1         1 WDV       0.191700
     44 H19         -5.2840    -4.3970     6.4970 ho         1 WDV       0.381000
     45 H4          -2.3280    -5.6780     9.3780 ha         1 WDV       0.152000
@<TRIPOS>BOND
     1    23    21 1
     2    22    21 1
     3    21    11 1
     4    11     7 ar
     5    11     4 ar
     6     7     9 ar
     7     4     5 ar
     8    26    18 1
     9     9    17 1
    10     9    12 ar
    11    15    13 1
    12    15    20 1
    13     5    12 ar
    14    17    20 1
    15    13    19 1
    16    12    24 1
    17    20    16 1
    18    18    27 1
    19    18    25 1
    20    18     8 1
    21     6     8 ar
    22     6    10 ar
    23    19    10 1
    24    19    14 1
    25     8     2 ar
    26    16    14 1
    27    10     3 ar
    28     2     1 ar
    29     3     1 ar
    30     1    28 1
    31     2    29 1
    32     3    30 1
    33     4    45 1
    34     5    31 1
    35     6    32 1
    36     7    33 1
    37    13    34 1
    38    13    35 1
    39    14    36 1
    40    14    37 1
    41    15    38 1
    42    15    39 1
    43    16    40 1
    44    16    41 1
    45    17    42 1
    46    17    43 1
    47    24    44 1
@<TRIPOS>SUBSTRUCTURE
     1 WDV         1 TEMP              0 ****  ****    0 ROOT
