@<TRIPOS>MOLECULE
molecule
   34    36     1     0     0
SMALL
bcc


@<TRIPOS>ATOM
      1 C14          0.0000     0.0000     0.0000 ca         1 WDW      -0.095000
      2 C10          1.3770     0.0000     0.0000 ca         1 WDW      -0.147000
      3 C12         -0.0530    -0.0040     2.3910 ca         1 WDW      -0.070000
      4 C11          2.3010    -0.0020     3.4650 cc         1 WDW      -0.109200
      5 C8           1.3480     0.0010     2.4180 ca         1 WDW      -0.113800
      6 C15         -0.7090     0.0000     1.1960 ca         1 WDW      -0.114300
      7 C7           2.0680     0.0000     1.2080 ca         1 WDW      -0.037200
      8 C13          3.5370     0.0000     2.9010 cd         1 WDW      -0.133300
      9 C4           7.4410    -2.7250     2.6140 c2         1 WDW      -0.145200
     10 C5           6.6780    -2.3190     1.6490 c2         1 WDW      -0.201200
     11 C16          4.8100    -0.0000     3.6360 c          1 WDW       0.702300
     12 C3           7.6300    -2.0010     3.9130 c3         1 WDW      -0.069200
     13 C6           5.8900    -1.0400     1.6920 c3         1 WDW       0.116200
     14 C2           7.2030    -0.5370     3.7740 c3         1 WDW       0.110000
     15 C17         -2.2150     0.0060     1.1700 c3         1 WDW      -0.042800
     16 N9           3.4060     0.0000     1.5250 na         1 WDW      -0.186400
     17 N1           5.9210    -0.5000     3.0590 n          1 WDW      -0.490800
     18 O18          4.8610     0.4510     4.7640 o          1 WDW      -0.593100
     19 H1          -0.5360     0.0030    -0.9410 ha         1 WDW       0.132000
     20 H2           1.9200    -0.0000    -0.9370 ha         1 WDW       0.125000
     21 H3          -0.6130    -0.0040     3.3180 ha         1 WDW       0.134000
     22 H4           2.0850     0.0740     4.5240 ha         1 WDW       0.170000
     23 H6           6.6050    -2.9340     0.7600 ha         1 WDW       0.128000
     24 H7           8.6750    -2.0420     4.1950 hc         1 WDW       0.061700
     25 H8           7.0280    -2.4770     4.6770 hc         1 WDW       0.061700
     26 H9           4.8640    -1.2380     1.4060 h1         1 WDW       0.060200
     27 H10          6.3300    -0.3210     1.0110 h1         1 WDW       0.060200
     28 H11          7.9500     0.0090     3.2110 h1         1 WDW       0.066200
     29 H12          7.0840    -0.0970     4.7570 h1         1 WDW       0.066200
     30 H13         -2.5580     0.2660     0.1760 hc         1 WDW       0.041367
     31 H14         -2.5850     0.7340     1.8820 hc         1 WDW       0.041367
     32 H15         -2.5840    -0.9770     1.4340 hc         1 WDW       0.041367
     33 H16          4.1610     0.0020     0.8680 hn         1 WDW       0.307700
     34 H5           7.9800    -3.6540     2.4720 ha         1 WDW       0.122000
@<TRIPOS>BOND
     1    12     9 1
     2    12    14 1
     3     9    10 2
     4    14    17 1
     5    10    13 1
     6    17    13 1
     7    17    11 1
     8    18    11 2
     9    11     8 1
    10     8    16 1
    11     8     4 2
    12    16     7 1
    13     4     5 1
    14     7     2 ar
    15     7     5 ar
    16     2     1 ar
    17     5     3 ar
    18     1     6 ar
    19     3     6 ar
    20     6    15 1
    21     1    19 1
    22     2    20 1
    23     3    21 1
    24     4    22 1
    25     9    34 1
    26    10    23 1
    27    12    24 1
    28    12    25 1
    29    13    26 1
    30    13    27 1
    31    14    28 1
    32    14    29 1
    33    15    30 1
    34    15    31 1
    35    15    32 1
    36    16    33 1
@<TRIPOS>SUBSTRUCTURE
     1 WDW         1 TEMP              0 ****  ****    0 ROOT
