@<TRIPOS>MOLECULE
WDW
   34    36     1     0     0
SMALL
bcc


@<TRIPOS>ATOM
      1 C14          0.0000     0.0000     0.0000 ca         1 WDW      -0.072000
      2 C10          1.3770     0.0000     0.0000 ca         1 WDW      -0.108000
      3 C12         -0.0530    -0.0040     2.3910 ca         1 WDW      -0.035000
      4 C11          2.3010    -0.0020     3.4650 cc         1 WDW      -0.067200
      5 C8           1.3480     0.0010     2.4180 ca         1 WDW      -0.115800
      6 C15         -0.7090     0.0000     1.1960 ca         1 WDW      -0.123300
      7 C7           2.0680     0.0000     1.2080 ca         1 WDW      -0.220200
      8 C13          3.5370     0.0000     2.9010 cd         1 WDW      -0.328300
      9 C4           7.4410    -2.7250     2.6140 c2         1 WDW      -0.126200
     10 C5           6.6780    -2.3190     1.6490 c2         1 WDW      -0.184200
     11 C16          4.8100    -0.0000     3.6360 c          1 WDW       0.646300
     12 C3           7.6300    -2.0010     3.9130 c3         1 WDW       0.002800
     13 C6           5.8900    -1.0400     1.6920 c3         1 WDW       0.066200
     14 C2           7.2030    -0.5370     3.7740 c3         1 WDW       0.054000
     15 C17         -2.2150     0.0060     1.1700 c3         1 WDW       0.069200
     16 N9           3.4060     0.0000     1.5250 na         1 WDW       0.329600
     17 N1           5.9210    -0.5000     3.0590 n          1 WDW      -0.160800
     18 O18          4.8610     0.4510     4.7640 o          1 WDW      -0.634100
     19 H1          -0.5360     0.0030    -0.9410 ha         1 WDW       0.104000
     20 H2           1.9200    -0.0000    -0.9370 ha         1 WDW       0.099000
     21 H3          -0.6130    -0.0040     3.3180 ha         1 WDW       0.106000
     22 H4           2.0850     0.0740     4.5240 ha         1 WDW       0.141000
     23 H6           6.6050    -2.9340     0.7600 ha         1 WDW       0.106000
     24 H7           8.6750    -2.0420     4.1950 hc         1 WDW       0.030200
     25 H8           7.0280    -2.4770     4.6770 hc         1 WDW       0.030200
     26 H9           4.8640    -1.2380     1.4060 h1         1 WDW       0.032200
     27 H10          6.3300    -0.3210     1.0110 h1         1 WDW       0.032200
     28 H11          7.9500     0.0090     3.2110 h1         1 WDW       0.037700
     29 H12          7.0840    -0.0970     4.7570 h1         1 WDW       0.037700
     30 H13         -2.5580     0.2660     0.1760 hc         1 WDW       0.005033
     31 H14         -2.5850     0.7340     1.8820 hc         1 WDW       0.005033
     32 H15         -2.5840    -0.9770     1.4340 hc         1 WDW       0.005033
     33 H16          4.1610     0.0020     0.8680 hn         1 WDW       0.138700
     34 H5           7.9800    -3.6540     2.4720 ha         1 WDW       0.098000
@<TRIPOS>BOND
     1     1     2 ar  
     2     1     6 ar  
     3     1    19 1   
     4     2     7 ar  
     5     2    20 1   
     6     3     5 ar  
     7     3     6 ar  
     8     3    21 1   
     9     4     5 1   
    10     4     8 2   
    11     4    22 1   
    12     5     7 ar  
    13     6    15 1   
    14     7    16 1   
    15     8    11 1   
    16     8    16 1   
    17     9    10 2   
    18     9    12 1   
    19     9    34 1   
    20    10    13 1   
    21    10    23 1   
    22    11    17 1   
    23    11    18 2   
    24    12    14 1   
    25    12    24 1   
    26    12    25 1   
    27    13    17 1   
    28    13    26 1   
    29    13    27 1   
    30    14    17 1   
    31    14    28 1   
    32    14    29 1   
    33    15    30 1   
    34    15    31 1   
    35    15    32 1   
    36    16    33 1   
@<TRIPOS>SUBSTRUCTURE
     1 WDW         1 TEMP              0 ****  ****    0 ROOT
