@<TRIPOS>MOLECULE
WDX
   43    45     1     0     0
SMALL
bcc


@<TRIPOS>ATOM
      1 C14          0.0000     0.0000     0.0000 ca         1 WDX      -0.072000
      2 C10          1.3770     0.0000     0.0000 ca         1 WDX      -0.107000
      3 C12         -0.0520     0.0080     2.3920 ca         1 WDX      -0.036000
      4 C11          2.3010     0.0010     3.4660 cc         1 WDX      -0.067200
      5 C8           1.3490     0.0010     2.4180 ca         1 WDX      -0.114800
      6 C15         -0.7080     0.0080     1.1960 ca         1 WDX      -0.122300
      7 C7           2.0690     0.0000     1.2080 ca         1 WDX      -0.222200
      8 C13          3.5380    -0.0110     2.9010 cd         1 WDX      -0.329300
      9 C16          4.8110    -0.0160     3.6370 c          1 WDX       0.641300
     10 C3           7.6760    -2.0590     3.9080 c3         1 WDX      -0.042400
     11 C5           6.3430    -2.6700     1.8830 c3         1 WDX      -0.042400
     12 C2           7.1770    -0.6130     3.8200 c3         1 WDX       0.031000
     13 C6           5.8290    -1.2300     1.7710 c3         1 WDX       0.031000
     14 C4           7.7430    -2.6600     2.5030 c3         1 WDX      -0.050700
     15 C17         -2.2150     0.0150     1.1700 c3         1 WDX       0.069200
     16 C19          8.2730    -4.0930     2.5850 c3         1 WDX      -0.034400
     17 C20          9.7180    -4.0740     3.0880 c3         1 WDX       0.218400
     18 N9           3.4070    -0.0070     1.5260 na         1 WDX       0.335600
     19 N1           5.8990    -0.5990     3.0960 n          1 WDX      -0.156800
     20 O18          4.8820     0.5060     4.7340 o          1 WDX      -0.634100
     21 O21         10.2140    -5.4120     3.1650 oh         1 WDX      -0.592800
     22 H1          -0.5360     0.0000    -0.9410 ha         1 WDX       0.104000
     23 H2           1.9200    -0.0060    -0.9370 ha         1 WDX       0.099000
     24 H3          -0.6130     0.0140     3.3190 ha         1 WDX       0.106000
     25 H4           2.0840    -0.0820     4.5240 ha         1 WDX       0.139000
     26 H5           6.9920    -2.6400     4.5160 hc         1 WDX       0.028450
     27 H6           8.6640    -2.0730     4.3530 hc         1 WDX       0.028450
     28 H7           5.6740    -3.2430     2.5140 hc         1 WDX       0.028450
     29 H8           6.3890    -3.1140     0.8970 hc         1 WDX       0.028450
     30 H9           7.0330    -0.2180     4.8180 h1         1 WDX       0.032950
     31 H10          7.9030    -0.0120     3.2860 h1         1 WDX       0.032950
     32 H11          4.8020    -1.2380     1.4270 h1         1 WDX       0.032950
     33 H12          6.4480    -0.6780     1.0730 h1         1 WDX       0.032950
     34 H13          8.4040    -2.0620     1.8870 hc         1 WDX       0.029700
     35 H14         -2.5760     1.0000     1.4380 hc         1 WDX       0.005367
     36 H15         -2.5910    -0.7130     1.8790 hc         1 WDX       0.005367
     37 H16         -2.5600    -0.2390     0.1750 hc         1 WDX       0.005367
     38 H17          7.6600    -4.6660     3.2700 hc         1 WDX       0.027200
     39 H18          8.2380    -4.5480     1.6030 hc         1 WDX       0.027200
     40 H19          9.7520    -3.6190     4.0710 h1         1 WDX      -0.012800
     41 H20         10.3310    -3.5000     2.4030 h1         1 WDX      -0.012800
     42 H21          4.1610    -0.0140     0.8690 hn         1 WDX       0.137700
     43 H22         11.1250    -5.3970     3.4050 ho         1 WDX       0.390000
@<TRIPOS>BOND
     1     1     2 ar  
     2     1     6 ar  
     3     1    22 1   
     4     2     7 ar  
     5     2    23 1   
     6     3     5 ar  
     7     3     6 ar  
     8     3    24 1   
     9     4     5 1   
    10     4     8 2   
    11     4    25 1   
    12     5     7 ar  
    13     6    15 1   
    14     7    18 1   
    15     8     9 1   
    16     8    18 1   
    17     9    19 1   
    18     9    20 2   
    19    10    12 1   
    20    10    14 1   
    21    10    26 1   
    22    10    27 1   
    23    11    13 1   
    24    11    14 1   
    25    11    28 1   
    26    11    29 1   
    27    12    19 1   
    28    12    30 1   
    29    12    31 1   
    30    13    19 1   
    31    13    32 1   
    32    13    33 1   
    33    14    16 1   
    34    14    34 1   
    35    15    35 1   
    36    15    36 1   
    37    15    37 1   
    38    16    17 1   
    39    16    38 1   
    40    16    39 1   
    41    17    21 1   
    42    17    40 1   
    43    17    41 1   
    44    18    42 1   
    45    21    43 1   
@<TRIPOS>SUBSTRUCTURE
     1 WDX         1 TEMP              0 ****  ****    0 ROOT
