@<TRIPOS>MOLECULE
WE0
   72    75     1     0     0
SMALL
bcc


@<TRIPOS>ATOM
      1 C5           0.0000     0.0000     0.0000 c3         1 WE0      -0.040900
      2 C6           2.0530     0.0000     1.4390 c3         1 WE0       0.169800
      3 C7           1.5350    -1.2530     2.1600 c3         1 WE0      -0.026300
      4 C8           1.5290     0.0000     0.0000 c3         1 WE0      -0.057400
      5 C13         -2.6290    -1.4030     4.0750 c3         1 WE0      -0.047700
      6 C20         -6.0330    -4.6940     1.2720 ca         1 WE0      -0.023000
      7 C21         -4.6350    -7.0350     1.9340 ca         1 WE0      -0.095000
      8 C22         -4.0600    -5.8190     2.1190 ca         1 WE0      -0.080000
      9 C24         -6.6420    -5.9420     1.0740 ca         1 WE0      -0.054000
     10 C26         -8.5060    -7.2670     0.3680 ca         1 WE0      -0.113000
     11 C28         -6.5520    -8.3730     1.2090 ca         1 WE0      -0.091000
     12 C1           0.0020     1.2520     2.1510 c3         1 WE0      -0.040900
     13 C2          -0.5150    -0.0060     1.4450 c3         1 WE0       0.010700
     14 C3           1.5310     1.2430     2.1640 c3         1 WE0      -0.057400
     15 N4           0.0610    -1.1830     2.1250 n          1 WE0      -0.116800
     16 O9           3.4820     0.0030     1.4460 oh         1 WE0      -0.568800
     17 C11         -2.2090    -1.9670     2.7160 c3         1 WE0      -0.065300
     18 O12         -0.2050    -3.1300     3.1570 o          1 WE0      -0.592100
     19 N14         -2.8530    -3.2670     2.5060 ns         1 WE0      -0.159900
     20 C16         -4.7500    -4.6380     1.7900 ca         1 WE0      -0.153600
     21 O17         -4.6930    -2.3040     1.7200 o          1 WE0      -0.677100
     22 C23         -5.9370    -7.1260     1.4090 ca         1 WE0      -0.022000
     23 C25         -7.9440    -6.0400     0.5480 ca         1 WE0      -0.078000
     24 C27         -7.8120    -8.4300     0.6970 ca         1 WE0      -0.100000
     25 C29          2.0180    -1.2630     3.5880 c          1 WE0       0.573100
     26 O30          1.2780    -0.9070     4.4810 o          1 WE0      -0.702100
     27 N31          3.2710    -1.6660     3.8730 ns         1 WE0      -0.072900
     28 C32          3.7410    -1.6760     5.2610 c3         1 WE0       0.017700
     29 C33          4.8680    -2.6990     5.4110 c3         1 WE0      -0.149400
     30 C34          4.3260    -4.0830     5.1640 c          1 WE0       0.968600
     31 O35          3.1580    -4.2360     4.8950 o          1 WE0      -0.894800
     32 C36          4.2600    -0.2850     5.6320 c3         1 WE0       0.193400
     33 O37          5.1420    -5.1470     5.2430 o          1 WE0      -0.894800
     34 O38          5.4130     0.0180     4.8450 oh         1 WE0      -0.588800
     35 H1          -0.3610    -0.8820    -0.5150 hc         1 WE0       0.024450
     36 H2          -0.3610     0.8870    -0.5080 hc         1 WE0       0.024450
     37 H3           1.8770    -2.1440     1.6470 h1         1 WE0       0.061700
     38 H4           1.8880    -0.8840    -0.5130 hc         1 WE0       0.024700
     39 H5           1.8880     0.8840    -0.5130 hc         1 WE0       0.024700
     40 H6          -2.2740    -2.0560     4.8630 hc         1 WE0       0.050700
     41 H9          -3.0570    -5.7580     2.5230 ha         1 WE0       0.119000
     42 H10         -9.5080    -7.3400    -0.0370 ha         1 WE0       0.097000
     43 H11         -6.0250    -9.2850     1.4600 ha         1 WE0       0.106000
     44 H12         -0.3490     2.1310     1.6240 hc         1 WE0       0.024450
     45 H13         -0.3670     1.2710     3.1700 hc         1 WE0       0.024450
     46 H14         -1.5970    -0.0420     1.4670 h1         1 WE0       0.059700
     47 H15          1.8810     1.2340     3.1890 hc         1 WE0       0.024700
     48 H16          1.9000     2.1310     1.6660 hc         1 WE0       0.024700
     49 H17          3.7980     0.5790     0.7690 ho         1 WE0       0.389000
     50 H18         -2.5130    -1.2840     1.9320 h1         1 WE0       0.060700
     51 H19         -2.3550    -4.1110     2.7110 hn         1 WE0       0.204500
     52 H26         -8.4950    -5.1450     0.2880 ha         1 WE0       0.106000
     53 H27         -8.2830    -9.3930     0.5450 ha         1 WE0       0.097000
     54 H28          3.8790    -1.9650     3.1370 hn         1 WE0       0.180500
     55 H29          2.9220    -1.9420     5.9170 h1         1 WE0       0.076700
     56 H30          5.2740    -2.6440     6.4140 hc         1 WE0       0.020700
     57 H31          5.6500    -2.4840     4.6930 hc         1 WE0       0.020700
     58 H32          4.5250    -0.2670     6.6820 h1         1 WE0      -0.015300
     59 H33          3.4890     0.4510     5.4410 h1         1 WE0      -0.015300
     60 H35          5.7980     0.8240     5.1480 ho         1 WE0       0.368000
     61 C10         -0.7130    -2.1360     2.6830 c          1 WE0       0.579100
     62 C18         -2.0250    -0.0100     4.2570 c3         1 WE0      -0.034600
     63 C15         -4.1010    -3.3270     2.0010 c          1 WE0       0.591700
     64 H7          -6.6090    -3.7850     1.1500 ha         1 WE0       0.128000
     65 H20         -2.2040     0.5810     3.3660 hc         1 WE0       0.017367
     66 H21         -0.9580    -0.0980     4.4230 hc         1 WE0       0.017367
     67 H22         -2.4850     0.4750     5.1090 hc         1 WE0       0.017367
     68 C19         -4.1550    -1.3090     4.1380 c3         1 WE0      -0.034600
     69 H8          -4.0910    -7.9360     2.1920 ha         1 WE0       0.111000
     70 H23         -4.4460    -0.7280     5.0060 hc         1 WE0       0.017367
     71 H24         -4.5750    -2.3050     4.2140 hc         1 WE0       0.017367
     72 H25         -4.5250    -0.8280     3.2410 hc         1 WE0       0.017367
@<TRIPOS>BOND
     1     1     4 1   
     2     1    13 1   
     3     1    35 1   
     4     1    36 1   
     5     2     3 1   
     6     2     4 1   
     7     2    14 1   
     8     2    16 1   
     9     3    15 1   
    10     3    25 1   
    11     3    37 1   
    12     4    38 1   
    13     4    39 1   
    14     5    17 1   
    15     5    40 1   
    16     5    62 1   
    17     5    68 1   
    18     6     9 ar  
    19     6    20 ar  
    20     6    64 1   
    21     7     8 ar  
    22     7    22 ar  
    23     7    69 1   
    24     8    20 ar  
    25     8    41 1   
    26     9    22 ar  
    27     9    23 ar  
    28    10    23 ar  
    29    10    24 ar  
    30    10    42 1   
    31    11    22 ar  
    32    11    24 ar  
    33    11    43 1   
    34    12    13 1   
    35    12    14 1   
    36    12    44 1   
    37    12    45 1   
    38    13    15 1   
    39    13    46 1   
    40    14    47 1   
    41    14    48 1   
    42    15    61 1   
    43    16    49 1   
    44    17    19 1   
    45    17    50 1   
    46    17    61 1   
    47    18    61 2   
    48    19    51 1   
    49    19    63 1   
    50    20    63 1   
    51    21    63 2   
    52    23    52 1   
    53    24    53 1   
    54    25    26 2   
    55    25    27 1   
    56    27    28 1   
    57    27    54 1   
    58    28    29 1   
    59    28    32 1   
    60    28    55 1   
    61    29    30 1   
    62    29    56 1   
    63    29    57 1   
    64    30    31 1   
    65    30    33 1   
    66    32    34 1   
    67    32    58 1   
    68    32    59 1   
    69    34    60 1   
    70    62    65 1   
    71    62    66 1   
    72    62    67 1   
    73    68    70 1   
    74    68    71 1   
    75    68    72 1   
@<TRIPOS>SUBSTRUCTURE
     1 WE0         1 TEMP              0 ****  ****    0 ROOT
