@<TRIPOS>MOLECULE
molecule
   72    75     1     0     0
SMALL
bcc


@<TRIPOS>ATOM
      1 C5           0.0000     0.0000     0.0000 c3         1 WE0      -0.092400
      2 C6           2.0530     0.0000     1.4390 c3         1 WE0       0.149800
      3 C7           1.5350    -1.2530     2.1600 c3         1 WE0       0.068700
      4 C8           1.5290     0.0000     0.0000 c3         1 WE0      -0.102900
      5 C13         -2.6290    -1.4030     4.0750 c3         1 WE0      -0.076700
      6 C20         -6.0330    -4.6940     1.2720 ca         1 WE0      -0.056000
      7 C21         -4.6350    -7.0350     1.9340 ca         1 WE0      -0.124000
      8 C22         -4.0600    -5.8190     2.1190 ca         1 WE0      -0.102000
      9 C24         -6.6420    -5.9420     1.0740 ca         1 WE0      -0.052000
     10 C26         -8.5060    -7.2670     0.3680 ca         1 WE0      -0.137000
     11 C28         -6.5520    -8.3730     1.2090 ca         1 WE0      -0.119000
     12 C1           0.0020     1.2520     2.1510 c3         1 WE0      -0.092400
     13 C2          -0.5150    -0.0060     1.4450 c3         1 WE0       0.105700
     14 C3           1.5310     1.2430     2.1640 c3         1 WE0      -0.102900
     15 N4           0.0610    -1.1830     2.1250 n          1 WE0      -0.470800
     16 O9           3.4820     0.0030     1.4460 oh         1 WE0      -0.581800
     17 C11         -2.2090    -1.9670     2.7160 c3         1 WE0       0.048700
     18 O12         -0.2050    -3.1300     3.1570 o          1 WE0      -0.556100
     19 N14         -2.8530    -3.2670     2.5060 ns         1 WE0      -0.559900
     20 C16         -4.7500    -4.6380     1.7900 ca         1 WE0      -0.142600
     21 O17         -4.6930    -2.3040     1.7200 o          1 WE0      -0.632100
     22 C23         -5.9370    -7.1260     1.4090 ca         1 WE0      -0.022000
     23 C25         -7.9440    -6.0400     0.5480 ca         1 WE0      -0.107000
     24 C27         -7.8120    -8.4300     0.6970 ca         1 WE0      -0.124000
     25 C29          2.0180    -1.2630     3.5880 c          1 WE0       0.672100
     26 O30          1.2780    -0.9070     4.4810 o          1 WE0      -0.652100
     27 N31          3.2710    -1.6660     3.8730 ns         1 WE0      -0.506900
     28 C32          3.7410    -1.6760     5.2610 c3         1 WE0       0.141700
     29 C33          4.8680    -2.6990     5.4110 c3         1 WE0      -0.197400
     30 C34          4.3260    -4.0830     5.1640 c          1 WE0       0.880600
     31 O35          3.1580    -4.2360     4.8950 o          1 WE0      -0.846300
     32 C36          4.2600    -0.2850     5.6320 c3         1 WE0       0.113400
     33 O37          5.1420    -5.1470     5.2430 o          1 WE0      -0.846300
     34 O38          5.4130     0.0180     4.8450 oh         1 WE0      -0.605800
     35 H1          -0.3610    -0.8820    -0.5150 hc         1 WE0       0.049950
     36 H2          -0.3610     0.8870    -0.5080 hc         1 WE0       0.049950
     37 H3           1.8770    -2.1440     1.6470 h1         1 WE0       0.091700
     38 H4           1.8880    -0.8840    -0.5130 hc         1 WE0       0.050450
     39 H5           1.8880     0.8840    -0.5130 hc         1 WE0       0.050450
     40 H6          -2.2740    -2.0560     4.8630 hc         1 WE0       0.077700
     41 H9          -3.0570    -5.7580     2.5230 ha         1 WE0       0.144000
     42 H10         -9.5080    -7.3400    -0.0370 ha         1 WE0       0.124000
     43 H11         -6.0250    -9.2850     1.4600 ha         1 WE0       0.133000
     44 H12         -0.3490     2.1310     1.6240 hc         1 WE0       0.049950
     45 H13         -0.3670     1.2710     3.1700 hc         1 WE0       0.049950
     46 H14         -1.5970    -0.0420     1.4670 h1         1 WE0       0.075700
     47 H15          1.8810     1.2340     3.1890 hc         1 WE0       0.050450
     48 H16          1.9000     2.1310     1.6660 hc         1 WE0       0.050450
     49 H17          3.7980     0.5790     0.7690 ho         1 WE0       0.400000
     50 H18         -2.5130    -1.2840     1.9320 h1         1 WE0       0.075700
     51 H19         -2.3550    -4.1110     2.7110 hn         1 WE0       0.340500
     52 H26         -8.4950    -5.1450     0.2880 ha         1 WE0       0.133000
     53 H27         -8.2830    -9.3930     0.5450 ha         1 WE0       0.124000
     54 H28          3.8790    -1.9650     3.1370 hn         1 WE0       0.328500
     55 H29          2.9220    -1.9420     5.9170 h1         1 WE0       0.097700
     56 H30          5.2740    -2.6440     6.4140 hc         1 WE0       0.044200
     57 H31          5.6500    -2.4840     4.6930 hc         1 WE0       0.044200
     58 H32          4.5250    -0.2670     6.6820 h1         1 WE0       0.014700
     59 H33          3.4890     0.4510     5.4410 h1         1 WE0       0.014700
     60 H35          5.7980     0.8240     5.1480 ho         1 WE0       0.377000
     61 C10         -0.7130    -2.1360     2.6830 c          1 WE0       0.661100
     62 C18         -2.0250    -0.0100     4.2570 c3         1 WE0      -0.099600
     63 C15         -4.1010    -3.3270     2.0010 c          1 WE0       0.673700
     64 H7          -6.6090    -3.7850     1.1500 ha         1 WE0       0.157000
     65 H20         -2.2040     0.5810     3.3660 hc         1 WE0       0.041367
     66 H21         -0.9580    -0.0980     4.4230 hc         1 WE0       0.041367
     67 H22         -2.4850     0.4750     5.1090 hc         1 WE0       0.041367
     68 C19         -4.1550    -1.3090     4.1380 c3         1 WE0      -0.099600
     69 H8          -4.0910    -7.9360     2.1920 ha         1 WE0       0.139000
     70 H23         -4.4460    -0.7280     5.0060 hc         1 WE0       0.041367
     71 H24         -4.5750    -2.3050     4.2140 hc         1 WE0       0.041367
     72 H25         -4.5250    -0.8280     3.2410 hc         1 WE0       0.041367
@<TRIPOS>BOND
     1    23    10 ar
     2    23     9 ar
     3    10    24 ar
     4    21    63 2
     5     6     9 ar
     6     6    20 ar
     7     9    22 ar
     8    24    11 ar
     9    63    20 1
    10    63    19 1
    11    20     8 ar
    12     1     4 1
    13     1    13 1
    14    22    11 ar
    15    22     7 ar
    16    68     5 1
    17     4     2 1
    18    13    12 1
    19    13    15 1
    20     8     7 ar
    21    19    17 1
    22    17     5 1
    23    17    61 1
    24     5    62 1
    25    12    14 1
    26    15    61 1
    27    15     3 1
    28    61    18 2
    29     2    14 1
    30     2     3 1
    31     2    16 1
    32     3    25 1
    33    25    26 2
    34    25    27 1
    35    27    28 1
    36    28    32 1
    37    28    29 1
    38    32    34 1
    39    29    30 1
    40    30    31 1
    41    30    33 1
    42     1    35 1
    43     1    36 1
    44     3    37 1
    45     4    38 1
    46     4    39 1
    47     5    40 1
    48     6    64 1
    49     7    69 1
    50     8    41 1
    51    10    42 1
    52    11    43 1
    53    12    44 1
    54    12    45 1
    55    13    46 1
    56    14    47 1
    57    14    48 1
    58    16    49 1
    59    17    50 1
    60    19    51 1
    61    62    65 1
    62    62    66 1
    63    62    67 1
    64    68    70 1
    65    68    71 1
    66    68    72 1
    67    23    52 1
    68    24    53 1
    69    27    54 1
    70    28    55 1
    71    29    56 1
    72    29    57 1
    73    32    58 1
    74    32    59 1
    75    34    60 1
@<TRIPOS>SUBSTRUCTURE
     1 WE0         1 TEMP              0 ****  ****    0 ROOT
