@<TRIPOS>MOLECULE
WEF
   47    49     1     0     0
SMALL
bcc


@<TRIPOS>ATOM
      1 O01          0.0000     0.0000     0.0000 o          1 WEF      -0.645100
      2 C02          1.2170     0.0000     0.0000 c          1 WEF       0.621700
      3 N03          1.8900     0.0000     1.1680 ns         1 WEF      -0.120900
      4 C04          1.1560     0.0010     2.4360 c3         1 WEF      -0.098300
      5 C05          2.0330    -0.6090     3.5330 c3         1 WEF       0.027900
      6 C06          2.2900    -2.0610     3.2210 ca         1 WEF      -0.084300
      7 C07          3.3890    -2.4200     2.4640 ca         1 WEF      -0.084500
      8 C08          3.6260    -3.7500     2.1760 ca         1 WEF      -0.141000
      9 C09          2.7610    -4.7260     2.6490 ca         1 WEF       0.096100
     10 O10          2.9920    -6.0350     2.3690 oh         1 WEF      -0.505100
     11 C11          1.6590    -4.3630     3.4100 ca         1 WEF      -0.141000
     12 C12          1.4290    -3.0310     3.6990 ca         1 WEF      -0.084500
     13 C13          0.7980     1.4170     2.8080 c          1 WEF       0.973600
     14 O14          1.1230     2.3320     2.0890 o          1 WEF      -0.882800
     15 O15          0.1200     1.6620     3.9400 o          1 WEF      -0.882800
     16 C16          1.9500    -0.0070    -1.2680 cc         1 WEF      -0.116000
     17 C17          1.3970    -0.0080    -2.5210 cd         1 WEF       0.366600
     18 C18         -0.0910    -0.0020    -2.7600 c3         1 WEF      -0.019400
     19 N19          2.2730    -0.0150    -3.4900 nd         1 WEF      -0.551000
     20 C20          3.5320    -0.0180    -3.1570 cc         1 WEF       0.448900
     21 C21          4.6570    -0.0250    -4.1150 ca         1 WEF      -0.063500
     22 C22          4.4080    -0.0270    -5.4890 ca         1 WEF      -0.093000
     23 C23          5.4630    -0.0330    -6.3780 ca         1 WEF      -0.046500
     24 C24          6.7660    -0.0370    -5.9110 ca         1 WEF      -0.221300
     25 C25          7.9130    -0.0500    -6.8890 c3         1 WEF       0.639200
     26 F26          9.0140     0.6020    -6.3240 f          1 WEF      -0.211633
     27 F27          8.2560    -1.3730    -7.1870 f          1 WEF      -0.211633
     28 F28          7.5320     0.6090    -8.0630 f          1 WEF      -0.211633
     29 C29          7.0190    -0.0340    -4.5510 ca         1 WEF      -0.046500
     30 C30          5.9740    -0.0220    -3.6510 ca         1 WEF      -0.093000
     31 S31          3.7020    -0.0080    -1.4550 ss         1 WEF      -0.285300
     32 H1           2.8900     0.0550     1.1690 hn         1 WEF       0.159500
     33 H2           0.2510    -0.5850     2.3300 h1         1 WEF       0.060700
     34 H3           1.5260    -0.5280     4.4870 hc         1 WEF       0.036700
     35 H4           2.9750    -0.0770     3.5790 hc         1 WEF       0.036700
     36 H5           4.0640    -1.6580     2.0950 ha         1 WEF       0.111000
     37 H6           4.4880    -4.0310     1.5820 ha         1 WEF       0.104500
     38 H7           3.5330    -6.4100     3.0430 ho         1 WEF       0.391000
     39 H8           0.9830    -5.1230     3.7820 ha         1 WEF       0.104500
     40 H9           0.5680    -2.7460     4.2930 ha         1 WEF       0.111000
     41 H11         -0.5180     0.9060    -2.3520 hc         1 WEF       0.022700
     42 H12         -0.5380    -0.8610    -2.2750 hc         1 WEF       0.022700
     43 H13         -0.2860    -0.0460    -3.8250 hc         1 WEF       0.022700
     44 H14          3.3890    -0.0240    -5.8560 ha         1 WEF       0.128500
     45 H15          5.2710    -0.0350    -7.4440 ha         1 WEF       0.114500
     46 H16          8.0410    -0.0350    -4.1920 ha         1 WEF       0.114500
     47 H17          6.1750    -0.0200    -2.5870 ha         1 WEF       0.128500
@<TRIPOS>BOND
     1     1     2 2   
     2     2     3 1   
     3     2    16 1   
     4     3     4 1   
     5     3    32 1   
     6     4     5 1   
     7     4    13 1   
     8     4    33 1   
     9     5     6 1   
    10     5    34 1   
    11     5    35 1   
    12     6     7 ar  
    13     6    12 ar  
    14     7     8 ar  
    15     7    36 1   
    16     8     9 ar  
    17     8    37 1   
    18     9    10 1   
    19     9    11 ar  
    20    10    38 1   
    21    11    12 ar  
    22    11    39 1   
    23    12    40 1   
    24    13    14 1   
    25    13    15 1   
    26    16    17 2   
    27    16    31 1   
    28    17    18 1   
    29    17    19 1   
    30    18    41 1   
    31    18    42 1   
    32    18    43 1   
    33    19    20 2   
    34    20    21 1   
    35    20    31 1   
    36    21    22 ar  
    37    21    30 ar  
    38    22    23 ar  
    39    22    44 1   
    40    23    24 ar  
    41    23    45 1   
    42    24    25 1   
    43    24    29 ar  
    44    25    26 1   
    45    25    27 1   
    46    25    28 1   
    47    29    30 ar  
    48    29    46 1   
    49    30    47 1   
@<TRIPOS>SUBSTRUCTURE
     1 WEF         1 TEMP              0 ****  ****    0 ROOT
