@<TRIPOS>MOLECULE
molecule
   50    52     1     0     0
SMALL
bcc


@<TRIPOS>ATOM
      1 C1           0.0000     0.0000     0.0000 c3         1 WF3       0.139700
      2 O2           1.4520     0.0000     0.0000 os         1 WF3      -0.413900
      3 C3           2.0650     0.0000     1.2020 c          1 WF3       0.668300
      4 O4           1.4030     0.0000     2.2220 o          1 WF3      -0.576000
      5 C5           3.5290     0.0010     1.2780 ce         1 WF3      -0.212400
      6 C6           4.1450     0.0010     2.4870 c2         1 WF3       0.126100
      7 O7           5.4900     0.0020     2.5570 os         1 WF3      -0.314900
      8 C8           6.0810     0.0020     3.8830 c3         1 WF3       0.125700
      9 C9           4.3360     0.0000     0.0340 ca         1 WF3      -0.018800
     10 C10          4.4550    -1.1650    -0.7220 ca         1 WF3      -0.103000
     11 C11          5.2080    -1.1590    -1.8790 ca         1 WF3      -0.129000
     12 C12          5.8440    -0.0000    -2.2880 ca         1 WF3      -0.126000
     13 C13          5.7290     1.1590    -1.5420 ca         1 WF3      -0.109000
     14 C14          4.9740     1.1660    -0.3860 ca         1 WF3      -0.076300
     15 C15          4.8500     2.4290     0.4260 c3         1 WF3       0.195700
     16 O16          5.5980     3.4740    -0.2000 os         1 WF3      -0.422100
     17 C17          5.5910     4.6860     0.4070 ca         1 WF3       0.583300
     18 C18          6.3070     5.7520    -0.1580 ca         1 WF3       0.216300
     19 C19          7.0760     5.5400    -1.4370 c3         1 WF3       0.594600
     20 F20          6.2480     5.8190    -2.5300 f          1 WF3      -0.210300
     21 F21          8.1840     6.3940    -1.4610 f          1 WF3      -0.210300
     22 F22          7.5080     4.2110    -1.5060 f          1 WF3      -0.210300
     23 N23          6.3120     6.9320     0.4150 nb         1 WF3      -0.567000
     24 C24          5.6300     7.1240     1.5510 ca         1 WF3       0.261300
     25 C25          5.6180     8.3770     2.1850 ca         1 WF3      -0.137300
     26 C26          4.9160     8.5440     3.3400 ca         1 WF3      -0.090300
     27 C27          4.9060     9.8910     4.0150 c3         1 WF3      -0.048800
     28 C28          4.2040     7.4870     3.9030 ca         1 WF3      -0.090000
     29 C29          4.1930     6.2580     3.3160 ca         1 WF3      -0.181300
     30 C30          4.9070     6.0490     2.1240 ca         1 WF3       0.363300
     31 N31          4.9080     4.8540     1.5220 nb         1 WF3      -0.737000
     32 H1          -0.3610     0.0680    -1.0190 h1         1 WF3       0.048700
     33 H1A         -0.3610     0.8480     0.5690 h1         1 WF3       0.048700
     34 H1B         -0.3610    -0.9170     0.4500 h1         1 WF3       0.048700
     35 H6           3.5560     0.0000     3.3950 h4         1 WF3       0.155000
     36 H8           5.8520    -0.9320     4.3810 h1         1 WF3       0.049033
     37 H8A          5.6780     0.8260     4.4580 h1         1 WF3       0.049033
     38 H8B          7.1560     0.1120     3.7990 h1         1 WF3       0.049033
     39 H10          3.9580    -2.0730    -0.4030 ha         1 WF3       0.134000
     40 H11          5.3020    -2.0640    -2.4680 ha         1 WF3       0.129000
     41 H12          6.4350    -0.0010    -3.1960 ha         1 WF3       0.130000
     42 H13          6.2270     2.0640    -1.8680 ha         1 WF3       0.151000
     43 H15          3.8070     2.7180     0.4870 h1         1 WF3       0.063200
     44 H15A         5.2350     2.2570     1.4240 h1         1 WF3       0.063200
     45 H25          6.2430     9.1800     1.8110 ha         1 WF3       0.156000
     46 H27          5.7720     9.9770     4.6610 hc         1 WF3       0.048700
     47 H27A         4.0040     9.9920     4.6060 hc         1 WF3       0.048700
     48 H27B         4.9370    10.6710     3.2650 hc         1 WF3       0.048700
     49 H28          3.6530     7.6440     4.8220 ha         1 WF3       0.140000
     50 H29          3.6350     5.4460     3.7660 ha         1 WF3       0.153000
@<TRIPOS>BOND
     1     2     1 1
     2     1    32 1
     3     1    33 1
     4     1    34 1
     5     2     3 1
     6     5     3 1
     7     3     4 2
     8     6     5 2
     9     9     5 1
    10     7     6 1
    11     6    35 1
    12     8     7 1
    13     8    36 1
    14     8    37 1
    15     8    38 1
    16    14     9 ar
    17     9    10 ar
    18    11    10 ar
    19    10    39 1
    20    12    11 ar
    21    11    40 1
    22    13    12 ar
    23    12    41 1
    24    13    14 ar
    25    13    42 1
    26    15    14 1
    27    15    16 1
    28    15    43 1
    29    15    44 1
    30    17    16 1
    31    31    17 ar
    32    18    17 ar
    33    23    18 ar
    34    18    19 1
    35    22    19 1
    36    21    19 1
    37    19    20 1
    38    24    23 ar
    39    25    24 ar
    40    24    30 ar
    41    26    25 ar
    42    25    45 1
    43    27    26 1
    44    26    28 ar
    45    27    46 1
    46    27    47 1
    47    27    48 1
    48    28    29 ar
    49    28    49 1
    50    29    30 ar
    51    29    50 1
    52    30    31 ar
@<TRIPOS>SUBSTRUCTURE
     1 WF3         1 TEMP              0 ****  ****    0 ROOT
