@<TRIPOS>MOLECULE
WF3
   50    52     1     0     0
SMALL
bcc


@<TRIPOS>ATOM
      1 C1          0.2070   -0.4610   -0.3030 c3        1 WF3      0.125700
      2 O2          1.6260   -0.3430   -0.1760 os        1 WF3     -0.416900
      3 C3          2.1130   -0.2280    1.0970 c         1 WF3      0.647300
      4 O4          1.2980   -0.2560    2.0290 o         1 WF3     -0.571000
      5 C5          3.5730   -0.0840    1.2010 ce        1 WF3     -0.183400
      6 C6          4.0810   -0.0730    2.4610 c2        1 WF3      0.105100
      7 O7          5.4300    0.0650    2.6570 os        1 WF3     -0.314900
      8 C8          5.8310   -0.0020    4.0280 c3        1 WF3      0.106700
      9 C9          4.3710    0.0020   -0.0210 ca        1 WF3     -0.020800
     10 C10         4.4610   -1.1200   -0.8560 ca        1 WF3     -0.101000
     11 C11         5.2240   -1.0790   -2.0200 ca        1 WF3     -0.130000
     12 C12         5.9050    0.0870   -2.3650 ca        1 WF3     -0.124000
     13 C13         5.8190    1.2120   -1.5470 ca        1 WF3     -0.110000
     14 C14         5.0540    1.1800   -0.3780 ca        1 WF3     -0.075300
     15 C15         4.9500    2.3640    0.5260 c3        1 WF3      0.183700
     16 O16         5.5420    3.5000   -0.1460 os        1 WF3     -0.429100
     17 C17         5.5250    4.6920    0.5250 ca        1 WF3      0.570300
     18 C18         6.1090    5.8140   -0.2120 ca        1 WF3      0.228300
     19 C19         6.6630    5.5770   -1.6310 c3        1 WF3      0.613600
     20 F20         5.6990    5.6660   -2.6010 f         1 WF3     -0.222967
     21 F21         7.6420    6.4490   -2.0310 f         1 WF3     -0.222967
     22 F22         7.2310    4.3410   -1.8020 f         1 WF3     -0.222967
     23 N23         6.1430    7.0300    0.3000 nb        1 WF3     -0.556000
     24 C24         5.6210    7.2090    1.5690 ca        1 WF3      0.251300
     25 C25         5.6380    8.5050    2.1680 ca        1 WF3     -0.138300
     26 C26         5.1220    8.6950    3.4300 ca        1 WF3     -0.083300
     27 C27         5.1290   10.0310    4.0700 c3        1 WF3     -0.056800
     28 C28         4.5670    7.5990    4.1420 ca        1 WF3     -0.097000
     29 C29         4.5310    6.3390    3.6030 ca        1 WF3     -0.179300
     30 C30         5.0570    6.1020    2.2960 ca        1 WF3      0.347300
     31 N31         5.0160    4.8340    1.7510 nb        1 WF3     -0.708000
     32 H1         -0.2910    0.4400    0.1290 h1        1 WF3      0.051367
     33 H1A        -0.1470   -1.3820    0.2180 h1        1 WF3      0.051367
     34 H1B         0.0510   -0.5270   -1.4080 h1        1 WF3      0.051367
     35 H6          3.4380   -0.1660    3.3550 h4        1 WF3      0.162000
     36 H8          5.3560    0.8240    4.6120 h1        1 WF3      0.052700
     37 H8A         6.9410    0.1290    3.9820 h1        1 WF3      0.052700
     38 H8B         5.5650   -0.9950    4.4630 h1        1 WF3      0.052700
     39 H10         3.9090   -2.0340   -0.5890 ha        1 WF3      0.136000
     40 H11         5.2860   -1.9670   -2.6660 ha        1 WF3      0.132000
     41 H12         6.5090    0.1240   -3.2830 ha        1 WF3      0.134000
     42 H13         6.3550    2.1360   -1.8220 ha        1 WF3      0.156000
     43 H15         5.5130    2.1710    1.4800 h1        1 WF3      0.071200
     44 H15A        3.8750    2.5950    0.7520 h1        1 WF3      0.071200
     45 H25         6.0710    9.3480    1.6030 ha        1 WF3      0.158000
     46 H27         4.0820   10.3540    4.3010 hc        1 WF3      0.050700
     47 H27A        5.5960   10.7990    3.4060 hc        1 WF3      0.050700
     48 H27B        5.7040    9.9960    5.0290 hc        1 WF3      0.050700
     49 H28         4.1600    7.7810    5.1500 ha        1 WF3      0.142000
     50 H29         4.0960    5.4970    4.1650 ha        1 WF3      0.155000
@<TRIPOS>BOND
     1    1    2 1   
     2    1   32 1   
     3    1   33 1   
     4    1   34 1   
     5    2    3 1   
     6    3    4 2   
     7    3    5 1   
     8    5    6 2   
     9    5    9 1   
    10    6    7 1   
    11    6   35 1   
    12    7    8 1   
    13    8   36 1   
    14    8   37 1   
    15    8   38 1   
    16    9   10 ar  
    17    9   14 ar  
    18   10   11 ar  
    19   10   39 1   
    20   11   12 ar  
    21   11   40 1   
    22   12   13 ar  
    23   12   41 1   
    24   13   14 ar  
    25   13   42 1   
    26   14   15 1   
    27   15   16 1   
    28   15   43 1   
    29   15   44 1   
    30   16   17 1   
    31   17   18 ar  
    32   17   31 ar  
    33   18   19 1   
    34   18   23 ar  
    35   19   20 1   
    36   19   21 1   
    37   19   22 1   
    38   23   24 ar  
    39   24   25 ar  
    40   24   30 ar  
    41   25   26 ar  
    42   25   45 1   
    43   26   27 1   
    44   26   28 ar  
    45   27   46 1   
    46   27   47 1   
    47   27   48 1   
    48   28   29 ar  
    49   28   49 1   
    50   29   30 ar  
    51   29   50 1   
    52   30   31 ar  
@<TRIPOS>SUBSTRUCTURE
     1 WF3         1 TEMP              0 ****  ****    0 ROOT
