@<TRIPOS>MOLECULE
WF4
   26    27     1     0     0
SMALL
bcc


@<TRIPOS>ATOM
      1 C01        -0.0530    0.0050    0.0980 c3        1 WF4     -0.109400
      2 C02         1.4240    0.0040   -0.0250 cc        1 WF4      0.325600
      3 C03         2.2830    0.0060    1.0880 cd        1 WF4     -0.198000
      4 C04         1.8640    0.0100    2.5450 c         1 WF4      0.936200
      5 O05         0.6320    0.0110    2.8060 o         1 WF4     -0.810300
      6 O06         2.7850    0.0120    3.4070 o         1 WF4     -0.810300
      7 S07         3.8700    0.0040    0.5850 ss        1 WF4     -0.016300
      8 C08         3.3990    0.0000   -1.0630 cd        1 WF4      0.307900
      9 C09         4.3720   -0.0030   -2.1370 ca        1 WF4     -0.030500
     10 C10         3.9770   -0.0010   -3.4860 ca        1 WF4     -0.138000
     11 C11         4.9300   -0.0030   -4.5000 ca        1 WF4     -0.082500
     12 C12         6.2900   -0.0070   -4.1820 ca        1 WF4     -0.199300
     13 C13         7.3270    0.0080   -5.2900 c3        1 WF4      0.690200
     14 F14         7.7100    1.2650   -5.7010 f         1 WF4     -0.248300
     15 F15         8.5190   -0.6040   -4.9790 f         1 WF4     -0.248300
     16 F16         6.9400   -0.6070   -6.4570 f         1 WF4     -0.248300
     17 C17         6.6980   -0.0100   -2.8450 ca        1 WF4     -0.082500
     18 C18         5.7460   -0.0080   -1.8320 ca        1 WF4     -0.138000
     19 N19         2.0630    0.0010   -1.2500 nc        1 WF4     -0.635000
     20 H1         -0.5630    0.0070   -0.8940 hc        1 WF4      0.049033
     21 H2         -0.3690   -0.8970    0.6820 hc        1 WF4      0.049033
     22 H3         -0.3670    0.9030    0.6870 hc        1 WF4      0.049033
     23 H5          2.9060    0.0020   -3.7440 ha        1 WF4      0.155000
     24 H6          4.6160   -0.0060   -5.5550 ha        1 WF4      0.138500
     25 H7          7.7710   -0.0190   -2.6000 ha        1 WF4      0.138500
     26 H8          6.0710   -0.0110   -0.7790 ha        1 WF4      0.155000
@<TRIPOS>BOND
     1    1    2 1   
     2    1   20 1   
     3    1   21 1   
     4    1   22 1   
     5    2    3 2   
     6    2   19 1   
     7    3    4 1   
     8    3    7 1   
     9    4    5 1   
    10    4    6 1   
    11    7    8 1   
    12    8    9 1   
    13    8   19 2   
    14    9   10 ar  
    15    9   18 ar  
    16   10   11 ar  
    17   10   23 1   
    18   11   12 ar  
    19   11   24 1   
    20   12   13 1   
    21   12   17 ar  
    22   13   14 1   
    23   13   15 1   
    24   13   16 1   
    25   17   18 ar  
    26   17   25 1   
    27   18   26 1   
@<TRIPOS>SUBSTRUCTURE
     1 WF4         1 TEMP              0 ****  ****    0 ROOT
