@<TRIPOS>MOLECULE
molecule
   26    27     1     0     0
SMALL
bcc


@<TRIPOS>ATOM
      1 C01          0.0000     0.0000     0.0000 c3         1 WF4      -0.092400
      2 C02          1.5070     0.0000     0.0000 cc         1 WF4       0.343600
      3 C03          2.2530     0.0000     1.1490 cd         1 WF4      -0.093000
      4 C04          1.7320     0.0010     2.5160 c          1 WF4       0.901200
      5 O05          0.5310     0.0010     2.7100 o          1 WF4      -0.817800
      6 O06          2.5840    -0.0000     3.5630 o          1 WF4      -0.817800
      7 S07          3.9540    -0.0020     0.6850 ss         1 WF4      -0.149300
      8 C08          3.5150    -0.0030    -0.9670 cd         1 WF4       0.379900
      9 C09          4.4720    -0.0040    -2.0920 ca         1 WF4      -0.040500
     10 C10          4.0080     0.0010    -3.4090 ca         1 WF4      -0.127000
     11 C11          4.9080    -0.0000    -4.4550 ca         1 WF4      -0.086000
     12 C12          6.2680    -0.0060    -4.2020 ca         1 WF4      -0.205300
     13 C13          7.2440    -0.0080    -5.3490 c3         1 WF4       0.673200
     14 F14          7.5520     1.3110    -5.7000 f          1 WF4      -0.231633
     15 F15          8.4140    -0.6730    -4.9660 f          1 WF4      -0.231633
     16 F16          6.6740    -0.6620    -6.4460 f          1 WF4      -0.231633
     17 C17          6.7350    -0.0120    -2.8990 ca         1 WF4      -0.086000
     18 C18          5.8470    -0.0050    -1.8440 ca         1 WF4      -0.127000
     19 N19          2.2180    -0.0060    -1.0960 nc         1 WF4      -0.680000
     20 H1          -0.3610    -0.0000    -1.0210 hc         1 WF4       0.046033
     21 H2          -0.3610     0.8850     0.5110 hc         1 WF4       0.046033
     22 H3          -0.3610    -0.8840     0.5110 hc         1 WF4       0.046033
     23 H5           2.9430     0.0050    -3.6090 ha         1 WF4       0.154500
     24 H6           4.5490     0.0030    -5.4770 ha         1 WF4       0.136500
     25 H7           7.8020    -0.0150    -2.7080 ha         1 WF4       0.136500
     26 H8           6.2150    -0.0090    -0.8250 ha         1 WF4       0.154500
@<TRIPOS>BOND
     1     5     4 1
     2     6     4 1
     3     4     3 1
     4     3     7 1
     5     3     2 2
     6     7     8 1
     7     2     1 1
     8     2    19 1
     9     8    19 2
    10     8     9 1
    11    10     9 ar
    12    10    11 ar
    13     9    18 ar
    14    11    12 ar
    15    18    17 ar
    16    12    17 ar
    17    12    13 1
    18    16    13 1
    19    13    14 1
    20    13    15 1
    21     1    20 1
    22     1    21 1
    23     1    22 1
    24    10    23 1
    25    11    24 1
    26    17    25 1
    27    18    26 1
@<TRIPOS>SUBSTRUCTURE
     1 WF4         1 TEMP              0 ****  ****    0 ROOT
