@<TRIPOS>MOLECULE
WF8
   38    40     1     0     0
SMALL
bcc


@<TRIPOS>ATOM
      1 CAG          0.0000     0.0000     0.0000 ca         1 WF8      -0.075000
      2 CAE          1.3810     0.0000     0.0000 ca         1 WF8      -0.099500
      3 CAD          2.0750     0.0000     1.1970 ca         1 WF8      -0.095000
      4 CAF          1.3870     0.0020     2.3970 ca         1 WF8      -0.099500
      5 CAH          0.0070     0.0020     2.4040 ca         1 WF8      -0.075000
      6 CAP         -0.6920     0.0020     1.2040 ca         1 WF8      -0.090400
      7 NAV         -2.0920     0.0030     1.2080 n          1 WF8       0.284000
      8 NAM         -2.7750    -0.9110     2.0130 nc         1 WF8      -0.446300
      9 CAT         -2.7520     0.8880     0.4400 c          1 WF8       0.608700
     10 OAC         -2.1270     1.6780    -0.2500 o          1 WF8      -0.695500
     11 CAJ         -4.1530     0.9080     0.4260 cc         1 WF8      -0.381200
     12 CAR         -4.8460     0.0070     1.2130 cd         1 WF8      -0.001600
     13 NAN         -6.2280    -0.0000     1.2240 nu         1 WF8      -0.392000
     14 CAU         -6.9720     0.9530     0.3960 c3         1 WF8       0.121500
     15 CAB         -7.1260     0.3890    -1.0180 c3         1 WF8      -0.012100
     16 CAA         -8.3550     1.1860     1.0060 c3         1 WF8      -0.012100
     17 CAS         -4.0880    -0.9360     2.0390 cd         1 WF8       0.298600
     18 CAQ         -4.8000    -1.9120     2.9000 cd         1 WF8       0.576700
     19 NAK         -4.2190    -2.8190     3.6970 nd         1 WF8      -0.649000
     20 CAI         -5.1350    -3.5170     4.3140 cc         1 WF8       0.296400
     21 NAO         -6.3430    -3.0680     3.9240 na         1 WF8       0.302600
     22 NAL         -6.1050    -2.0260     3.0120 nc         1 WF8      -0.712800
     23 HAG         -0.5420     0.0000    -0.9380 ha         1 WF8       0.119500
     24 HAE          1.9220    -0.0010    -0.9390 ha         1 WF8       0.103500
     25 HAD          3.1580    -0.0000     1.1940 ha         1 WF8       0.101000
     26 HAF          1.9330     0.0010     3.3330 ha         1 WF8       0.103500
     27 HAH         -0.5310     0.0030     3.3450 ha         1 WF8       0.119500
     28 HAJ         -4.6860     1.6200    -0.1920 ha         1 WF8       0.157000
     29 HAN         -6.7200    -0.6490     1.8060 hn         1 WF8       0.339800
     30 HAU         -6.4330     1.8920     0.3540 h1         1 WF8       0.045700
     31 HAB1        -7.6730    -0.5450    -0.9770 hc         1 WF8       0.011700
     32 HAB2        -6.1460     0.2160    -1.4460 hc         1 WF8       0.011700
     33 HAB3        -7.6680     1.0980    -1.6320 hc         1 WF8       0.011700
     34 HAA1        -8.8970     1.9090     0.4080 hc         1 WF8       0.011700
     35 HAA2        -8.9030     0.2520     1.0270 hc         1 WF8       0.011700
     36 HAA3        -8.2460     1.5630     2.0160 hc         1 WF8       0.011700
     37 HAO         -7.2340    -3.4070     4.2270 hn         1 WF8       0.161700
     38 HAI         -4.9540    -4.3200     5.0180 h5         1 WF8       0.028100
@<TRIPOS>BOND
     1     1     2 ar  
     2     1     6 ar  
     3     1    23 1   
     4     2     3 ar  
     5     2    24 1   
     6     3     4 ar  
     7     3    25 1   
     8     4     5 ar  
     9     4    26 1   
    10     5     6 ar  
    11     5    27 1   
    12     6     7 1   
    13     7     8 1   
    14     7     9 1   
    15     8    17 2   
    16     9    10 2   
    17     9    11 1   
    18    11    12 2   
    19    11    28 1   
    20    12    13 1   
    21    12    17 1   
    22    13    14 1   
    23    13    29 1   
    24    14    15 1   
    25    14    16 1   
    26    14    30 1   
    27    15    31 1   
    28    15    32 1   
    29    15    33 1   
    30    16    34 1   
    31    16    35 1   
    32    16    36 1   
    33    17    18 1   
    34    18    19 1   
    35    18    22 2   
    36    19    20 2   
    37    20    21 1   
    38    20    38 1   
    39    21    22 1   
    40    21    37 1   
@<TRIPOS>SUBSTRUCTURE
     1 WF8         1 TEMP              0 ****  ****    0 ROOT
