@<TRIPOS>MOLECULE
WFE
   52    55     1     0     0
SMALL
bcc


@<TRIPOS>ATOM
      1 C1           0.0000     0.0000     0.0000 c3         1 WFE       0.007900
      2 C2           1.5310     0.0000     0.0000 c3         1 WFE       0.061800
      3 C3           2.0320     0.0000     1.4210 cc         1 WFE      -0.108400
      4 C4           2.3800     1.0750     2.1470 cd         1 WFE      -0.245100
      5 N5           2.7880     0.6800     3.3960 na         1 WFE       0.292900
      6 C6           2.7120    -0.6820     3.5040 ca         1 WFE       0.258800
      7 N7           2.9810    -1.5540     4.4740 nb         1 WFE      -0.584000
      8 C8           2.8040    -2.8440     4.2850 ca         1 WFE       0.642900
      9 N9           2.3600    -3.3450     3.1470 nb         1 WFE      -0.725000
     10 C10          2.0640    -2.5540     2.1190 ca         1 WFE       0.527200
     11 N11          1.6000    -3.0830     0.9280 nh         1 WFE      -0.477300
     12 C12          2.5740    -4.0470     0.3570 c3         1 WFE       0.141800
     13 C13          1.7110    -4.8930    -0.6110 c3         1 WFE      -0.027400
     14 C14          0.3690    -5.0240     0.1460 c3         1 WFE      -0.127800
     15 N15          0.3150    -6.3030     0.8680 nz         1 WFE       0.059400
     16 C16         -0.8040    -4.9130    -0.8290 c3         1 WFE       0.063000
     17 N17         -0.8000    -6.0670    -1.7330 ns         1 WFE      -0.273900
     18 C18         -1.7480    -6.1830    -2.6820 c          1 WFE       0.619700
     19 O19         -2.6080    -5.3290    -2.7900 o          1 WFE      -0.582100
     20 C20         -1.7440    -7.3440    -3.5920 ca         1 WFE      -0.229600
     21 C21         -0.7620    -8.3300    -3.4670 ca         1 WFE      -0.039000
     22 C22         -0.7630    -9.4120    -4.3190 ca         1 WFE      -0.151000
     23 C23         -1.7360    -9.5280    -5.3000 ca         1 WFE       0.184900
     24 F24         -1.7300   -10.5920    -6.1310 f          1 WFE      -0.106900
     25 C25         -2.7140    -8.5560    -5.4310 ca         1 WFE      -0.172000
     26 C26         -2.7280    -7.4670    -4.5790 ca         1 WFE       0.229900
     27 F27         -3.6860    -6.5230    -4.7030 f          1 WFE      -0.095900
     28 C28          0.3520    -3.8490     1.1400 c3         1 WFE       0.151800
     29 C29          2.2300    -1.1690     2.2750 ca         1 WFE      -0.302400
     30 H1          -0.3610    -0.4530     0.9150 hc         1 WFE       0.002700
     31 H1A         -0.3610     1.0190    -0.0650 hc         1 WFE       0.002700
     32 H1B         -0.3610    -0.5660    -0.8500 hc         1 WFE       0.002700
     33 H2           1.8920    -0.8840    -0.5110 hc         1 WFE       0.020700
     34 H2A          1.8920     0.8850    -0.5100 hc         1 WFE       0.020700
     35 H4           2.3430     2.1000     1.7990 h4         1 WFE       0.160000
     36 H8           3.0340    -3.5240     5.0970 h5         1 WFE       0.006100
     37 H12          3.3530    -3.5250    -0.1850 h1         1 WFE       0.045200
     38 H12A         2.9940    -4.6710     1.1370 h1         1 WFE       0.045200
     39 H13          2.1570    -5.8680    -0.7680 hc         1 WFE       0.050700
     40 H13A         1.5690    -4.3720    -1.5500 hc         1 WFE       0.050700
     41 HN15         0.5870    -7.0450     0.2530 hn         1 WFE       0.231133
     42 HN1A         0.9390    -6.2720     1.6490 hn         1 WFE       0.231133
     43 H16         -1.7340    -4.8940    -0.2730 h1         1 WFE       0.064700
     44 H16A        -0.7090    -4.0020    -1.4060 h1         1 WFE       0.064700
     45 HN17        -0.0730    -6.7520    -1.6660 hn         1 WFE       0.170500
     46 H21         -0.0000    -8.2430    -2.7010 ha         1 WFE       0.085000
     47 H22         -0.0010   -10.1760    -4.2220 ha         1 WFE       0.132000
     48 H25         -3.4730    -8.6530    -6.1980 ha         1 WFE       0.152000
     49 H28          0.3190    -4.2250     2.1550 h1         1 WFE       0.050700
     50 H28A        -0.5060    -3.2160     0.9470 h1         1 WFE       0.050700
     51 HN5          3.0970     1.2970     4.1210 hn         1 WFE       0.133700
     52 H153        -0.6180    -6.4640     1.1910 hn         1 WFE       0.231133
@<TRIPOS>BOND
     1     1     2 1   
     2     1    30 1   
     3     1    31 1   
     4     1    32 1   
     5     2     3 1   
     6     2    33 1   
     7     2    34 1   
     8     3     4 2   
     9     3    29 1   
    10     4     5 1   
    11     4    35 1   
    12     5     6 1   
    13     5    51 1   
    14     6     7 ar  
    15     6    29 ar  
    16     7     8 ar  
    17     8     9 ar  
    18     8    36 1   
    19     9    10 ar  
    20    10    11 1   
    21    10    29 ar  
    22    11    12 1   
    23    11    28 1   
    24    12    13 1   
    25    12    37 1   
    26    12    38 1   
    27    13    14 1   
    28    13    39 1   
    29    13    40 1   
    30    14    15 1   
    31    14    16 1   
    32    14    28 1   
    33    15    41 1   
    34    15    42 1   
    35    15    52 1   
    36    16    17 1   
    37    16    43 1   
    38    16    44 1   
    39    17    18 1   
    40    17    45 1   
    41    18    19 2   
    42    18    20 1   
    43    20    21 ar  
    44    20    26 ar  
    45    21    22 ar  
    46    21    46 1   
    47    22    23 ar  
    48    22    47 1   
    49    23    24 1   
    50    23    25 ar  
    51    25    26 ar  
    52    25    48 1   
    53    26    27 1   
    54    28    49 1   
    55    28    50 1   
@<TRIPOS>SUBSTRUCTURE
     1 WFE         1 TEMP              0 ****  ****    0 ROOT
