@<TRIPOS>MOLECULE
molecule
   52    55     1     0     0
SMALL
bcc


@<TRIPOS>ATOM
      1 C1           0.0000     0.0000     0.0000 c3         1 WFE      -0.086100
      2 C2           1.5310     0.0000     0.0000 c3         1 WFE      -0.007200
      3 C3           2.0320     0.0000     1.4210 cc         1 WFE      -0.125400
      4 C4           2.3800     1.0750     2.1470 cd         1 WFE      -0.074100
      5 N5           2.7880     0.6800     3.3960 na         1 WFE      -0.263100
      6 C6           2.7120    -0.6820     3.5040 ca         1 WFE       0.501800
      7 N7           2.9810    -1.5540     4.4740 nb         1 WFE      -0.726000
      8 C8           2.8040    -2.8440     4.2850 ca         1 WFE       0.708900
      9 N9           2.3600    -3.3450     3.1470 nb         1 WFE      -0.837000
     10 C10          2.0640    -2.5540     2.1190 ca         1 WFE       0.629200
     11 N11          1.6000    -3.0830     0.9280 nh         1 WFE      -0.664300
     12 C12          2.5740    -4.0470     0.3570 c3         1 WFE       0.144800
     13 C13          1.7110    -4.8930    -0.6110 c3         1 WFE      -0.098400
     14 C14          0.3690    -5.0240     0.1460 c3         1 WFE       0.069200
     15 N15          0.3150    -6.3030     0.8680 nz         1 WFE      -0.806600
     16 C16         -0.8040    -4.9130    -0.8290 c3         1 WFE       0.109000
     17 N17         -0.8000    -6.0670    -1.7330 ns         1 WFE      -0.626900
     18 C18         -1.7480    -6.1830    -2.6820 c          1 WFE       0.684700
     19 O19         -2.6080    -5.3290    -2.7900 o          1 WFE      -0.552100
     20 C20         -1.7440    -7.3440    -3.5920 ca         1 WFE      -0.228600
     21 C21         -0.7620    -8.3300    -3.4670 ca         1 WFE      -0.062000
     22 C22         -0.7630    -9.4120    -4.3190 ca         1 WFE      -0.190000
     23 C23         -1.7360    -9.5280    -5.3000 ca         1 WFE       0.209900
     24 F24         -1.7300   -10.5920    -6.1310 f          1 WFE      -0.109900
     25 C25         -2.7140    -8.5560    -5.4310 ca         1 WFE      -0.215000
     26 C26         -2.7280    -7.4670    -4.5790 ca         1 WFE       0.240900
     27 F27         -3.6860    -6.5230    -4.7030 f          1 WFE      -0.090900
     28 C28          0.3520    -3.8490     1.1400 c3         1 WFE       0.146800
     29 C29          2.2300    -1.1690     2.2750 ca         1 WFE      -0.295400
     30 H1          -0.3610    -0.4530     0.9150 hc         1 WFE       0.035700
     31 H1A         -0.3610     1.0190    -0.0650 hc         1 WFE       0.035700
     32 H1B         -0.3610    -0.5660    -0.8500 hc         1 WFE       0.035700
     33 H2           1.8920    -0.8840    -0.5110 hc         1 WFE       0.053200
     34 H2A          1.8920     0.8850    -0.5100 hc         1 WFE       0.053200
     35 H4           2.3430     2.1000     1.7990 h4         1 WFE       0.190000
     36 H8           3.0340    -3.5240     5.0970 h5         1 WFE       0.069100
     37 H12          3.3530    -3.5250    -0.1850 h1         1 WFE       0.080700
     38 H12A         2.9940    -4.6710     1.1370 h1         1 WFE       0.080700
     39 H13          2.1570    -5.8680    -0.7680 hc         1 WFE       0.086200
     40 H13A         1.5690    -4.3720    -1.5500 hc         1 WFE       0.086200
     41 HN15         0.5870    -7.0450     0.2530 hn         1 WFE       0.455467
     42 HN1A         0.9390    -6.2720     1.6490 hn         1 WFE       0.455467
     43 H16         -1.7340    -4.8940    -0.2730 h1         1 WFE       0.096700
     44 H16A        -0.7090    -4.0020    -1.4060 h1         1 WFE       0.096700
     45 HN17        -0.0730    -6.7520    -1.6660 hn         1 WFE       0.298500
     46 H21         -0.0000    -8.2430    -2.7010 ha         1 WFE       0.112000
     47 H22         -0.0010   -10.1760    -4.2220 ha         1 WFE       0.160000
     48 H25         -3.4730    -8.6530    -6.1980 ha         1 WFE       0.182000
     49 H28          0.3190    -4.2250     2.1550 h1         1 WFE       0.086200
     50 H28A        -0.5060    -3.2160     0.9470 h1         1 WFE       0.086200
     51 HN5          3.0970     1.2970     4.1210 hn         1 WFE       0.323700
     52 H153        -0.6180    -6.4640     1.1910 hn         1 WFE       0.455467
@<TRIPOS>BOND
     1     2     1 1
     2     1    30 1
     3     1    31 1
     4     1    32 1
     5     2     3 1
     6     2    33 1
     7     2    34 1
     8     3    29 1
     9     3     4 2
    10     4     5 1
    11     4    35 1
    12     6     5 1
    13    29     6 ar
    14     6     7 ar
    15     8     7 ar
    16     9     8 ar
    17     8    36 1
    18    10     9 ar
    19    11    10 1
    20    10    29 ar
    21    28    11 1
    22    12    11 1
    23    13    12 1
    24    12    37 1
    25    12    38 1
    26    14    13 1
    27    13    39 1
    28    13    40 1
    29    16    14 1
    30    15    14 1
    31    14    28 1
    32    15    41 1
    33    15    42 1
    34    16    17 1
    35    16    43 1
    36    16    44 1
    37    17    18 1
    38    17    45 1
    39    19    18 2
    40    18    20 1
    41    21    20 ar
    42    20    26 ar
    43    21    22 ar
    44    21    46 1
    45    22    23 ar
    46    22    47 1
    47    23    25 ar
    48    23    24 1
    49    26    25 ar
    50    25    48 1
    51    26    27 1
    52    28    49 1
    53    28    50 1
    54     5    51 1
    55    52    15 1
@<TRIPOS>SUBSTRUCTURE
     1 WFE         1 TEMP              0 ****  ****    0 ROOT
