@<TRIPOS>MOLECULE
WFF
   36    39     1     0     0
SMALL
bcc


@<TRIPOS>ATOM
      1 C1          0.1410    0.8530    0.3210 ca        1 WFF     -0.100000
      2 C2         -2.7350    2.2860   -1.4310 ca        1 WFF     -0.062000
      3 C3          1.5320    0.8300    0.3150 ca        1 WFF     -0.119000
      4 C4         -2.5340    3.3930   -2.2440 ca        1 WFF     -0.183000
      5 C5          0.1030   -0.1850    2.5150 ca        1 WFF     -0.128000
      6 C6         -2.1730    4.7710   -0.2630 ca        1 WFF     -0.211000
      7 C7         -0.5810    0.3490    1.4130 ca        1 WFF     -0.056800
      8 C8         -2.6570    2.3800   -0.0350 ca        1 WFF     -0.092800
      9 C9          1.5070   -0.2210    2.5300 ca        1 WFF      0.018600
     10 C10         2.2130    0.2960    1.4100 ca        1 WFF      0.088100
     11 C11        -2.2510    4.6410   -1.6570 ca        1 WFF      0.164900
     12 C12        -2.3790    3.6400    0.5460 ca        1 WFF      0.180900
     13 C13        -2.8940    1.2080    0.7820 ce        1 WFF     -0.127400
     14 C14        -2.0260    0.3650    1.4050 cf        1 WFF     -0.009400
     15 C15        -4.2800    0.7390    1.0770 c         1 WFF      0.715800
     16 C16         3.6050   -0.5930    3.6740 c         1 WFF      0.676500
     17 C17        -2.8210   -0.6860    2.1550 c3        1 WFF      0.138600
     18 C18         4.2790    0.2090    2.5750 c3        1 WFF      0.059400
     19 N19         2.2270   -0.7460    3.6110 n         1 WFF     -0.469100
     20 O20        -5.3990    1.1150    0.7640 o         1 WFF     -0.542500
     21 O21         4.2450   -1.0730    4.6240 o         1 WFF     -0.602500
     22 O22         3.5930    0.2200    1.3240 os        1 WFF     -0.309900
     23 O23        -4.2120   -0.3920    1.8890 os        1 WFF     -0.410900
     24 F24        -2.0540    5.7250   -2.4420 f         1 WFF     -0.129900
     25 F25        -2.3060    3.7810    1.8890 f         1 WFF     -0.125900
     26 H1         -0.4020    1.2730   -0.5420 ha        1 WFF      0.152000
     27 H3          2.1030    1.2180   -0.5420 ha        1 WFF      0.161000
     28 H4         -2.6010    3.3080   -3.3390 ha        1 WFF      0.159000
     29 H5         -0.4650   -0.5760    3.3740 ha        1 WFF      0.143000
     30 H6         -1.9590    5.7470    0.1970 ha        1 WFF      0.169000
     31 H7         -2.6220   -1.7200    1.7790 h1        1 WFF      0.085200
     32 H8         -2.6780   -0.6220    3.2630 h1        1 WFF      0.085200
     33 H9          4.4040    1.2660    2.9340 h1        1 WFF      0.094700
     34 H10         5.2790   -0.2440    2.3310 h1        1 WFF      0.094700
     35 H11         1.7410   -1.2100    4.3440 hn        1 WFF      0.339500
     36 H2         -2.9690    1.3110   -1.8900 ha        1 WFF      0.151000
@<TRIPOS>BOND
     1    1    3 ar  
     2    1    7 ar  
     3    1   26 1   
     4    2    4 ar  
     5    2    8 ar  
     6    2   36 1   
     7    3   10 ar  
     8    3   27 1   
     9    4   11 ar  
    10    4   28 1   
    11    5    7 ar  
    12    5    9 ar  
    13    5   29 1   
    14    6   11 ar  
    15    6   12 ar  
    16    6   30 1   
    17    7   14 1   
    18    8   12 ar  
    19    8   13 1   
    20    9   10 ar  
    21    9   19 1   
    22   10   22 1   
    23   11   24 1   
    24   12   25 1   
    25   13   14 2   
    26   13   15 1   
    27   14   17 1   
    28   15   20 2   
    29   15   23 1   
    30   16   18 1   
    31   16   19 1   
    32   16   21 2   
    33   17   23 1   
    34   17   31 1   
    35   17   32 1   
    36   18   22 1   
    37   18   33 1   
    38   18   34 1   
    39   19   35 1   
@<TRIPOS>SUBSTRUCTURE
     1 WFF         1 TEMP              0 ****  ****    0 ROOT
