@<TRIPOS>MOLECULE
molecule
   36    39     1     0     0
SMALL
bcc


@<TRIPOS>ATOM
      1 C1           0.0000     0.0000     0.0000 ca         1 WFF      -0.122000
      2 C2          -2.6170     2.4620    -1.2340 ca         1 WFF      -0.057000
      3 C3           1.3780     0.0000     0.0000 ca         1 WFF      -0.086000
      4 C4          -2.1950     3.6520    -1.7910 ca         1 WFF      -0.181000
      5 C5           0.0020     0.0130     2.4250 ca         1 WFF      -0.142000
      6 C6          -1.5900     4.4710     0.3850 ca         1 WFF      -0.206000
      7 C7          -0.7010     0.0070     1.2130 ca         1 WFF      -0.016800
      8 C8          -2.5320     2.2720     0.1450 ca         1 WFF      -0.083800
      9 C9           1.3820     0.0020     2.4140 ca         1 WFF       0.070600
     10 C10          2.0740     0.0000     1.2000 ca         1 WFF       0.054100
     11 C11         -1.6830     4.6560    -0.9850 ca         1 WFF       0.166900
     12 C12         -2.0200     3.2880     0.9550 ca         1 WFF       0.179900
     13 C13         -2.9840     0.9970     0.7470 ce         1 WFF      -0.144400
     14 C14         -2.1690     0.0080     1.2140 cf         1 WFF      -0.040400
     15 C15         -4.3790     0.5950     0.9460 c          1 WFF       0.717800
     16 C16          3.4220     0.2960     3.5900 c          1 WFF       0.725500
     17 C17         -3.0730    -1.0860     1.7320 c3         1 WFF       0.087600
     18 C18          4.0760     0.6770     2.2860 c3         1 WFF      -0.526600
     19 N19          2.1060     0.0070     3.6160 ns         1 WFF      -0.479100
     20 O20         -5.3460     1.2620     0.6320 o          1 WFF      -0.554500
     21 O21          4.0770     0.2500     4.6100 o          1 WFF      -0.634500
     22 O22          3.4330    -0.0090     1.2080 os         1 WFF      -0.195900
     23 O23         -4.4350    -0.6190     1.5240 os         1 WFF      -0.371900
     24 F24         -1.2920     5.8260    -1.5340 f          1 WFF      -0.129900
     25 F25         -1.5810     3.0000     2.2140 f          1 WFF      -0.132900
     26 H1          -0.5410     0.0000    -0.9380 ha         1 WFF       0.152000
     27 H3           1.9200    -0.0050    -0.9380 ha         1 WFF       0.156000
     28 H4          -2.2600     3.8020    -2.8620 ha         1 WFF       0.154000
     29 H5          -0.5370     0.0180     3.3640 ha         1 WFF       0.152000
     30 H6          -1.1900     5.2580     1.0120 ha         1 WFF       0.166000
     31 H7          -3.5040    -0.7980     2.6830 h1         1 WFF       0.125200
     32 H8          -2.5240    -2.0150     1.8250 h1         1 WFF       0.125200
     33 H9           5.0940     0.9820     2.4960 h1         1 WFF       0.291200
     34 H10          4.0460    -0.1850     1.6290 h1         1 WFF       0.291200
     35 H11          1.6700    -0.2940     4.4650 hn         1 WFF       0.338500
     36 H2          -3.0170     1.6800    -1.8680 ha         1 WFF       0.150000
@<TRIPOS>BOND
     1    23    15 1
     2    23    17 1
     3    20    15 2
     4    15    13 1
     5    17    14 1
     6    13    14 2
     7    13     8 1
     8    14     7 1
     9     8     2 ar
    10     8    12 ar
    11     2     4 ar
    12     5     7 ar
    13     5     9 ar
    14     7     1 ar
    15    25    12 1
    16    12     6 ar
    17    19     9 1
    18    19    16 1
    19     4    11 ar
    20     9    10 ar
    21     1     3 ar
    22     6    11 ar
    23    21    16 2
    24    11    24 1
    25    16    18 1
    26    10     3 ar
    27    10    22 1
    28    22    18 1
    29     1    26 1
    30     2    36 1
    31     3    27 1
    32     4    28 1
    33     5    29 1
    34     6    30 1
    35    17    31 1
    36    17    32 1
    37    18    33 1
    38    18    34 1
    39    19    35 1
@<TRIPOS>SUBSTRUCTURE
     1 WFF         1 TEMP              0 ****  ****    0 ROOT
