@<TRIPOS>MOLECULE
WFG
   39    42     1     0     0
SMALL
bcc


@<TRIPOS>ATOM
      1 C1           0.0000     0.0000     0.0000 ca         1 WFG      -0.075000
      2 C2          -1.8360    -3.1880     1.5080 ca         1 WFG      -0.054500
      3 C3          -2.8070    -2.5360     3.6190 ca         1 WFG      -0.054500
      4 C4           1.3790     0.0000     0.0000 ca         1 WFG      -0.100000
      5 C5          -1.4180    -4.3750     2.0720 ca         1 WFG      -0.131500
      6 C6          -2.3940    -3.7300     4.1710 ca         1 WFG      -0.131500
      7 C7           0.0020     0.0100     2.4250 ca         1 WFG      -0.081000
      8 C8          -2.5350    -2.2580     2.2790 ca         1 WFG      -0.042800
      9 C9          -0.7020     0.0050     1.2120 ca         1 WFG      -0.047800
     10 C10          1.3810    -0.0010     2.4140 ca         1 WFG      -0.152400
     11 C11          2.0740     0.0000     1.2000 ca         1 WFG       0.124100
     12 C12         -1.6960    -4.6480     3.4030 ca         1 WFG       0.111900
     13 C13         -2.9850    -0.9820     1.6790 ce         1 WFG      -0.145400
     14 C14         -2.1680     0.0060     1.2120 cf         1 WFG      -0.053400
     15 C15         -4.3790    -0.5790     1.4830 c          1 WFG       0.793800
     16 C16          3.4170     0.3150     3.5900 c          1 WFG       0.556500
     17 C17          4.0680     0.6970     2.2850 c3         1 WFG       0.126400
     18 C18         -3.0730     1.1010     0.6960 c3         1 WFG       0.217300
     19 C19         -2.8250     2.3960     1.4720 c3         1 WFG      -0.006100
     20 N20          2.1040    -0.0150     3.6160 ns         1 WFG      -0.021100
     21 O21         -5.3470    -1.2460     1.7940 o          1 WFG      -0.599500
     22 O22          4.0670     0.3010     4.6130 o          1 WFG      -0.620500
     23 O23          3.4330     0.0020     1.2090 os         1 WFG      -0.296900
     24 O24         -4.4350     0.6380     0.9110 os         1 WFG      -0.371900
     25 F25         -1.3080    -5.8210     3.9470 f          1 WFG      -0.126900
     26 H1          -0.5410    -0.0000    -0.9380 ha         1 WFG       0.112000
     27 H3          -3.3520    -1.8200     4.2230 ha         1 WFG       0.111500
     28 H4           1.9200    -0.0040    -0.9380 ha         1 WFG       0.123000
     29 H5          -0.8760    -5.0980     1.4750 ha         1 WFG       0.121000
     30 H6          -2.6040    -3.9470     5.2120 ha         1 WFG       0.121000
     31 H7          -0.5380     0.0140     3.3640 ha         1 WFG       0.121000
     32 H8           5.1300     0.8290     2.4520 h1         1 WFG       0.044200
     33 H9           3.6430     1.6340     1.9470 h1         1 WFG       0.044200
     34 H10         -2.8980     1.2570    -0.3620 h1         1 WFG       0.044700
     35 H11         -2.5440     2.1590     2.4910 hc         1 WFG       0.018367
     36 H12         -2.0270     2.9540     0.9980 hc         1 WFG       0.018367
     37 H13         -3.7300     2.9930     1.4770 hc         1 WFG       0.018367
     38 H14          1.6980     0.3650     4.4490 hn         1 WFG       0.173500
     39 H2          -1.6180    -2.9760     0.4680 ha         1 WFG       0.111500
@<TRIPOS>BOND
     1     1     4 ar  
     2     1     9 ar  
     3     1    26 1   
     4     2     5 ar  
     5     2     8 ar  
     6     2    39 1   
     7     3     6 ar  
     8     3     8 ar  
     9     3    27 1   
    10     4    11 ar  
    11     4    28 1   
    12     5    12 ar  
    13     5    29 1   
    14     6    12 ar  
    15     6    30 1   
    16     7     9 ar  
    17     7    10 ar  
    18     7    31 1   
    19     8    13 1   
    20     9    14 1   
    21    10    11 ar  
    22    10    20 1   
    23    11    23 1   
    24    12    25 1   
    25    13    14 2   
    26    13    15 1   
    27    14    18 1   
    28    15    21 2   
    29    15    24 1   
    30    16    17 1   
    31    16    20 1   
    32    16    22 2   
    33    17    23 1   
    34    17    32 1   
    35    17    33 1   
    36    18    19 1   
    37    18    24 1   
    38    18    34 1   
    39    19    35 1   
    40    19    36 1   
    41    19    37 1   
    42    20    38 1   
@<TRIPOS>SUBSTRUCTURE
     1 WFG         1 TEMP              0 ****  ****    0 ROOT
