@<TRIPOS>MOLECULE
molecule
   28    30     1     0     0
SMALL
bcc


@<TRIPOS>ATOM
      1 CAF          0.0000     0.0000     0.0000 ca         1 WG8      -0.198300
      2 CAH          1.3650     0.0000     0.0000 ca         1 WG8      -0.107000
      3 CAQ          2.0310     0.0000     1.2400 ca         1 WG8      -0.148300
      4 CAG          3.4330     0.0010     1.3140 ca         1 WG8      -0.121000
      5 CAD          4.0470     0.0020     2.5300 ca         1 WG8      -0.127000
      6 CAE          3.3030     0.0010     3.7080 ca         1 WG8      -0.175000
      7 CAO          1.9380     0.0000     3.6780 ca         1 WG8       0.079800
      8 OAC          1.2300    -0.0000     4.8360 oh         1 WG8      -0.499100
      9 CAR          1.2660    -0.0000     2.4350 ca         1 WG8       0.403600
     10 NAK         -0.0640    -0.0000     2.3740 nb         1 WG8      -0.655000
     11 CAP         -0.6970    -0.0010     1.2170 ca         1 WG8       0.463000
     12 CAN         -2.1800    -0.0010     1.2020 ce         1 WG8       0.372200
     13 N           -2.9050    -0.0010     0.1450 n2         1 WG8      -0.539900
     14 SAL         -3.2080    -0.0090     2.6400 ss         1 WG8      -0.377300
     15 CB          -4.7870    -0.0050     1.7310 c3         1 WG8       0.019700
     16 CA          -4.3470    -0.0010     0.2590 c3         1 WG8       0.004500
     17 C           -4.8960    -1.2290    -0.4220 c          1 WG8       0.903600
     18 O           -4.1720    -2.1700    -0.6470 o          1 WG8      -0.819300
     19 OXT         -6.1890    -1.2770    -0.7770 o          1 WG8      -0.819300
     20 HAF         -0.5430    -0.0010    -0.9370 ha         1 WG8       0.172000
     21 HAH          1.9210     0.0010    -0.9300 ha         1 WG8       0.135000
     22 HAG          4.0250     0.0020     0.4070 ha         1 WG8       0.127000
     23 HAD          5.1290     0.0020     2.5820 ha         1 WG8       0.121000
     24 HAE          3.8160     0.0010     4.6620 ha         1 WG8       0.131000
     25 HAC          1.2170     0.8710     5.1980 ho         1 WG8       0.417000
     26 HA          -4.7400     0.8850    -0.2250 h1         1 WG8       0.085700
     27 HB1C        -5.3580    -0.8980     1.9560 h1         1 WG8       0.075200
     28 HB2C        -5.3560     0.8880     1.9610 h1         1 WG8       0.075200
@<TRIPOS>BOND
     1     1     2 ar
     2     1    11 ar
     3     2     3 ar
     4     3     4 ar
     5     3     9 ar
     6     4     5 ar
     7     5     6 ar
     8     6     7 ar
     9     7     8 1
    10     7     9 ar
    11     9    10 ar
    12    10    11 ar
    13    11    12 1
    14    12    13 2
    15    12    14 1
    16    13    16 1
    17    14    15 1
    18    15    16 1
    19    16    17 1
    20    17    18 1
    21    17    19 1
    22     1    20 1
    23     2    21 1
    24     4    22 1
    25     5    23 1
    26     6    24 1
    27     8    25 1
    28    16    26 1
    29    15    27 1
    30    15    28 1
@<TRIPOS>SUBSTRUCTURE
     1 WG8         1 TEMP              0 ****  ****    0 ROOT
