@<TRIPOS>MOLECULE
WG8
   28    30     1     0     0
SMALL
bcc


@<TRIPOS>ATOM
      1 CAF          0.0000     0.0000     0.0000 ca         1 WG8      -0.167300
      2 CAH          1.3650     0.0000     0.0000 ca         1 WG8      -0.088000
      3 CAQ          2.0310     0.0000     1.2400 ca         1 WG8      -0.137300
      4 CAG          3.4330     0.0010     1.3140 ca         1 WG8      -0.103000
      5 CAD          4.0470     0.0020     2.5300 ca         1 WG8      -0.092000
      6 CAE          3.3030     0.0010     3.7080 ca         1 WG8      -0.172000
      7 CAO          1.9380     0.0000     3.6780 ca         1 WG8       0.096800
      8 OAC          1.2300    -0.0000     4.8360 oh         1 WG8      -0.479100
      9 CAR          1.2660    -0.0000     2.4350 ca         1 WG8       0.346600
     10 NAK         -0.0640    -0.0000     2.3740 nb         1 WG8      -0.531000
     11 CAP         -0.6970    -0.0010     1.2170 ca         1 WG8       0.411000
     12 CAN         -2.1800    -0.0010     1.2020 ce         1 WG8       0.315200
     13 N           -2.9050    -0.0010     0.1450 n2         1 WG8      -0.416900
     14 SAL         -3.2080    -0.0090     2.6400 ss         1 WG8      -0.420300
     15 CB          -4.7870    -0.0050     1.7310 c3         1 WG8       0.099700
     16 CA          -4.3470    -0.0010     0.2590 c3         1 WG8      -0.011500
     17 C           -4.8960    -1.2290    -0.4220 c          1 WG8       0.984600
     18 O           -4.1720    -2.1700    -0.6470 o          1 WG8      -0.870300
     19 OXT         -6.1890    -1.2770    -0.7770 o          1 WG8      -0.870300
     20 HAF         -0.5430    -0.0010    -0.9370 ha         1 WG8       0.141000
     21 HAH          1.9210     0.0010    -0.9300 ha         1 WG8       0.107000
     22 HAG          4.0250     0.0020     0.4070 ha         1 WG8       0.102000
     23 HAD          5.1290     0.0020     2.5820 ha         1 WG8       0.093000
     24 HAE          3.8160     0.0010     4.6620 ha         1 WG8       0.106000
     25 HAC          1.2170     0.8710     5.1980 ho         1 WG8       0.399000
     26 HA          -4.7400     0.8850    -0.2250 h1         1 WG8       0.053700
     27 HB1C        -5.3580    -0.8980     1.9560 h1         1 WG8       0.052200
     28 HB2C        -5.3560     0.8880     1.9610 h1         1 WG8       0.052200
@<TRIPOS>BOND
     1     1     2 ar  
     2     1    11 ar  
     3     1    20 1   
     4     2     3 ar  
     5     2    21 1   
     6     3     4 ar  
     7     3     9 ar  
     8     4     5 ar  
     9     4    22 1   
    10     5     6 ar  
    11     5    23 1   
    12     6     7 ar  
    13     6    24 1   
    14     7     8 1   
    15     7     9 ar  
    16     8    25 1   
    17     9    10 ar  
    18    10    11 ar  
    19    11    12 1   
    20    12    13 2   
    21    12    14 1   
    22    13    16 1   
    23    14    15 1   
    24    15    16 1   
    25    15    27 1   
    26    15    28 1   
    27    16    17 1   
    28    16    26 1   
    29    17    18 1   
    30    17    19 1   
@<TRIPOS>SUBSTRUCTURE
     1 WG8         1 TEMP              0 ****  ****    0 ROOT
