@<TRIPOS>MOLECULE
molecule
   38    40     1     0     0
SMALL
bcc


@<TRIPOS>ATOM
      1 C18          0.0000     0.0000     0.0000 ca         1 WGG      -0.145000
      2 C17          1.3890     0.0000     0.0000 ca         1 WGG      -0.096000
      3 C7           7.8450    -1.1680     6.3290 ca         1 WGG      -0.091000
      4 C19         -0.7010     0.0010     1.1890 ca         1 WGG      -0.055000
      5 C8           6.4990    -1.1780     6.6430 ca         1 WGG      -0.149000
      6 C16          2.0940     0.0000     1.1820 ca         1 WGG      -0.115000
      7 C6           8.5150     0.0320     6.1910 ca         1 WGG      -0.211000
      8 C4           6.4820     1.2160     6.6720 ca         1 WGG      -0.141000
      9 C20         -0.0070    -0.0050     2.3950 ca         1 WGG      -0.195600
     10 C3           5.8180     0.0130     6.8140 ca         1 WGG      -0.087300
     11 C15          1.4060     0.0010     2.3990 ca         1 WGG       0.186400
     12 C5           7.8330     1.2290     6.3630 ca         1 WGG       0.140100
     13 C21         -0.7050    -0.0040     3.6910 c          1 WGG       0.707100
     14 C13          1.4240     0.0020     4.7150 cc         1 WGG       0.463900
     15 C11          2.2180    -0.0050     5.9680 c          1 WGG       0.585800
     16 C10          9.8800     2.3490     5.9030 c3         1 WGG       0.128700
     17 C2           4.3490    -0.0010     7.1500 c3         1 WGG       0.161300
     18 N14          2.0600     0.0010     3.5770 nd         1 WGG      -0.641100
     19 N23          0.0580    -0.0100     4.8090 ns         1 WGG      -0.451400
     20 N1           3.5640     0.0060     5.9130 ns         1 WGG      -0.549900
     21 O22         -1.9200     0.0010     3.7550 o          1 WGG      -0.614500
     22 O12          1.6540    -0.0200     7.0450 o          1 WGG      -0.606100
     23 O9           8.4890     2.4110     6.2230 os         1 WGG      -0.327900
     24 H1          -0.5370    -0.0000    -0.9410 ha         1 WGG       0.138000
     25 H2           1.9240    -0.0010    -0.9420 ha         1 WGG       0.137000
     26 H3           8.3770    -2.1020     6.1950 ha         1 WGG       0.134000
     27 H4          -1.7840     0.0010     1.1830 ha         1 WGG       0.157000
     28 H5           5.9760    -2.1200     6.7530 ha         1 WGG       0.136000
     29 H6           3.1770     0.0000     1.1700 ha         1 WGG       0.149000
     30 H7           9.5700     0.0390     5.9470 ha         1 WGG       0.138000
     31 H8           5.9480     2.1490     6.8060 ha         1 WGG       0.149000
     32 H9          10.0110     1.8320     4.9600 h1         1 WGG       0.042700
     33 H10         10.4060     1.8130     6.6840 h1         1 WGG       0.042700
     34 H11         10.2780     3.3530     5.8230 h1         1 WGG       0.042700
     35 H12          4.1170    -0.8930     7.7190 h1         1 WGG       0.063700
     36 H13          4.1040     0.8750     7.7380 h1         1 WGG       0.063700
     37 H14         -0.3790    -0.0230     5.7100 hn         1 WGG       0.361500
     38 H15          4.0280     0.0230     5.0260 hn         1 WGG       0.345500
@<TRIPOS>BOND
     1    23    16 1
     2    23    12 1
     3     8    12 ar
     4     8    10 ar
     5    17    10 1
     6    17    20 1
     7    12     7 ar
     8    10     5 ar
     9    20    15 1
    10     7     3 ar
    11     5     3 ar
    12    15    22 2
    13    15    14 1
    14    18    14 2
    15    18    11 1
    16     6    11 ar
    17     6     2 ar
    18    14    19 1
    19    11     9 ar
    20     2     1 ar
    21    19    13 1
    22     9    13 1
    23     9     4 ar
    24     1     4 ar
    25    13    21 2
    26     1    24 1
    27     2    25 1
    28     3    26 1
    29     4    27 1
    30     5    28 1
    31     6    29 1
    32     7    30 1
    33     8    31 1
    34    16    32 1
    35    16    33 1
    36    16    34 1
    37    17    35 1
    38    17    36 1
    39    19    37 1
    40    20    38 1
@<TRIPOS>SUBSTRUCTURE
     1 WGG         1 TEMP              0 ****  ****    0 ROOT
