@<TRIPOS>MOLECULE
WGG
   38    40     1     0     0
SMALL
bcc


@<TRIPOS>ATOM
      1 C18          0.0000     0.0000     0.0000 ca         1 WGG      -0.120000
      2 C17          1.3890     0.0000     0.0000 ca         1 WGG      -0.066000
      3 C7           7.8450    -1.1680     6.3290 ca         1 WGG      -0.055000
      4 C19         -0.7010     0.0010     1.1890 ca         1 WGG      -0.018000
      5 C8           6.4990    -1.1780     6.6430 ca         1 WGG      -0.127000
      6 C16          2.0940     0.0000     1.1820 ca         1 WGG      -0.093000
      7 C6           8.5150     0.0320     6.1910 ca         1 WGG      -0.201000
      8 C4           6.4820     1.2160     6.6720 ca         1 WGG      -0.125000
      9 C20         -0.0070    -0.0050     2.3950 ca         1 WGG      -0.204600
     10 C3           5.8180     0.0130     6.8140 ca         1 WGG      -0.090300
     11 C15          1.4060     0.0010     2.3990 ca         1 WGG       0.142400
     12 C5           7.8330     1.2290     6.3630 ca         1 WGG       0.152100
     13 C21         -0.7050    -0.0040     3.6910 c          1 WGG       0.611100
     14 C13          1.4240     0.0020     4.7150 cc         1 WGG       0.251900
     15 C11          2.2180    -0.0050     5.9680 c          1 WGG       0.487800
     16 C10          9.8800     2.3490     5.9030 c3         1 WGG       0.244700
     17 C2           4.3490    -0.0010     7.1500 c3         1 WGG       0.104300
     18 N14          2.0600     0.0010     3.5770 nd         1 WGG      -0.533100
     19 N23          0.0580    -0.0100     4.8090 ns         1 WGG       0.024600
     20 N1           3.5640     0.0060     5.9130 ns         1 WGG      -0.144900
     21 O22         -1.9200     0.0010     3.7550 o          1 WGG      -0.656500
     22 O12          1.6540    -0.0200     7.0450 o          1 WGG      -0.659100
     23 O9           8.4890     2.4110     6.2230 os         1 WGG      -0.306900
     24 H1          -0.5370    -0.0000    -0.9410 ha         1 WGG       0.109000
     25 H2           1.9240    -0.0010    -0.9420 ha         1 WGG       0.104000
     26 H3           8.3770    -2.1020     6.1950 ha         1 WGG       0.103000
     27 H4          -1.7840     0.0010     1.1830 ha         1 WGG       0.126000
     28 H5           5.9760    -2.1200     6.7530 ha         1 WGG       0.111000
     29 H6           3.1770     0.0000     1.1700 ha         1 WGG       0.118000
     30 H7           9.5700     0.0390     5.9470 ha         1 WGG       0.122000
     31 H8           5.9480     2.1490     6.8060 ha         1 WGG       0.122000
     32 H9          10.0110     1.8320     4.9600 h1         1 WGG      -0.001633
     33 H10         10.4060     1.8130     6.6840 h1         1 WGG      -0.001633
     34 H11         10.2780     3.3530     5.8230 h1         1 WGG      -0.001633
     35 H12          4.1170    -0.8930     7.7190 h1         1 WGG       0.032700
     36 H13          4.1040     0.8750     7.7380 h1         1 WGG       0.032700
     37 H14         -0.3790    -0.0230     5.7100 hn         1 WGG       0.205500
     38 H15          4.0280     0.0230     5.0260 hn         1 WGG       0.200500
@<TRIPOS>BOND
     1     1     2 ar  
     2     1     4 ar  
     3     1    24 1   
     4     2     6 ar  
     5     2    25 1   
     6     3     5 ar  
     7     3     7 ar  
     8     3    26 1   
     9     4     9 ar  
    10     4    27 1   
    11     5    10 ar  
    12     5    28 1   
    13     6    11 ar  
    14     6    29 1   
    15     7    12 ar  
    16     7    30 1   
    17     8    10 ar  
    18     8    12 ar  
    19     8    31 1   
    20     9    11 ar  
    21     9    13 1   
    22    10    17 1   
    23    11    18 1   
    24    12    23 1   
    25    13    19 1   
    26    13    21 2   
    27    14    15 1   
    28    14    18 2   
    29    14    19 1   
    30    15    20 1   
    31    15    22 2   
    32    16    23 1   
    33    16    32 1   
    34    16    33 1   
    35    16    34 1   
    36    17    20 1   
    37    17    35 1   
    38    17    36 1   
    39    19    37 1   
    40    20    38 1   
@<TRIPOS>SUBSTRUCTURE
     1 WGG         1 TEMP              0 ****  ****    0 ROOT
