@<TRIPOS>MOLECULE
WGT
   27    28     1     0     0
SMALL
bcc


@<TRIPOS>ATOM
      1 C            0.0000     0.0000     0.0000 c3         1 WGT      -0.002100
      2 N            3.9790    -2.4240     3.0600 nv         1 WGT      -0.399200
      3 O            2.0060     0.0000     1.3470 os         1 WGT      -0.400900
      4 S            4.8110    -0.7710     5.0730 ss         1 WGT      -0.257800
      5 C1           1.5300     0.0000     0.0000 c3         1 WGT       0.216400
      6 O1           4.0860     0.0000     0.5590 o          1 WGT      -0.576000
      7 S1           4.5180     3.1540     1.4830 ss         1 WGT      -0.239800
      8 C2           3.3440    -0.0000     1.5240 c          1 WGT       0.747700
      9 C3           3.8860    -0.0010     2.8340 cc         1 WGT      -0.249600
     10 C4           4.1940     1.2110     3.5800 cc         1 WGT       0.052000
     11 C5           4.6960     0.9580     4.7950 cd         1 WGT      -0.019100
     12 C6           4.1760    -1.1420     3.5360 cd         1 WGT       0.157500
     13 C7           3.9760     2.5740     3.0520 cc         1 WGT       0.072900
     14 C8           3.3300     3.5650     3.6990 cd         1 WGT      -0.118000
     15 C9           3.2530     4.7540     3.0020 cd         1 WGT      -0.130000
     16 C10          3.8270     4.7410     1.7960 cc         1 WGT       0.001900
     17 H           -0.3610    -0.8940     0.4930 hc         1 WGT       0.009700
     18 HA          -0.3610     0.8740     0.5280 hc         1 WGT       0.009700
     19 HB          -0.3610     0.0200    -1.0210 hc         1 WGT       0.009700
     20 HN           3.6690    -3.1460     3.6800 hn         1 WGT       0.275800
     21 HNA          4.2100    -2.6460     2.1110 hn         1 WGT       0.275800
     22 H1           1.8910    -0.8840    -0.5110 h1         1 WGT       0.007700
     23 H1A          1.8910     0.8850    -0.5110 h1         1 WGT       0.007700
     24 H5           4.9910     1.7170     5.5100 h4         1 WGT       0.158000
     25 H8           2.9060     3.4390     4.6880 ha         1 WGT       0.124000
     26 H9           2.7630     5.6330     3.4030 ha         1 WGT       0.119000
     27 H10          3.8620     5.5820     1.1140 h4         1 WGT       0.148000
@<TRIPOS>BOND
     1     1     5 1   
     2     1    17 1   
     3     1    18 1   
     4     1    19 1   
     5     2    12 1   
     6     2    20 1   
     7     2    21 1   
     8     3     5 1   
     9     3     8 1   
    10     4    11 1   
    11     4    12 1   
    12     5    22 1   
    13     5    23 1   
    14     6     8 2   
    15     7    13 1   
    16     7    16 1   
    17     8     9 1   
    18     9    10 1   
    19     9    12 2   
    20    10    11 2   
    21    10    13 1   
    22    11    24 1   
    23    13    14 2   
    24    14    15 1   
    25    14    25 1   
    26    15    16 2   
    27    15    26 1   
    28    16    27 1   
@<TRIPOS>SUBSTRUCTURE
     1 WGT         1 TEMP              0 ****  ****    0 ROOT
