@<TRIPOS>MOLECULE
WGZ
   66    70     1     0     0
SMALL
bcc


@<TRIPOS>ATOM
      1 C01          0.0000     0.0000     0.0000 c3         1 WGZ      -0.036100
      2 C02          1.5300     0.0000     0.0000 c3         1 WGZ       0.193400
      3 O03          2.0070     0.0000     1.3470 os         1 WGZ      -0.236900
      4 C04          2.2130     1.2100     1.9280 cc         1 WGZ       0.343100
      5 C05          1.9830     2.3990     1.2760 cc         1 WGZ      -0.265000
      6 C06          2.2390     3.5060     2.0000 cd         1 WGZ       0.121700
      7 N07          2.0780     4.8120     1.5440 na         1 WGZ       0.450600
      8 C08          2.5570     5.3260     0.3740 cc         1 WGZ       0.197700
      9 N09          2.2230     6.5780     0.2680 nd         1 WGZ      -0.458100
     10 C10          1.5060     6.9560     1.3590 ca         1 WGZ       0.031400
     11 C11          0.9150     8.1600     1.7510 ca         1 WGZ       0.021000
     12 C12          0.2420     8.2350     2.9370 ca         1 WGZ      -0.132000
     13 C13          0.1400     7.1210     3.7650 ca         1 WGZ       0.196100
     14 O14         -0.5350     7.2130     4.9430 os         1 WGZ      -0.284900
     15 C15         -0.7040     6.0060     5.6890 c3         1 WGZ       0.164100
     16 C16         -1.9330     6.1350     6.5940 c3         1 WGZ      -0.042400
     17 C17         -1.7080     7.2710     7.5940 c3         1 WGZ       0.156300
     18 N18         -0.5120     6.9890     8.3980 n3         1 WGZ      -0.549600
     19 C19         -0.3430     7.9900     9.4600 c3         1 WGZ       0.189100
     20 C20          0.6880     6.9090     7.5550 c3         1 WGZ       0.156300
     21 C21          0.5350     5.7620     6.5540 c3         1 WGZ      -0.042400
     22 C22          0.7180     5.9200     3.3960 ca         1 WGZ      -0.229000
     23 C23          1.3980     5.8290     2.1910 ca         1 WGZ      -0.238200
     24 S24          2.8060     3.0610     3.6030 ss         1 WGZ      -0.252800
     25 C25          2.6640     1.3500     3.2170 cd         1 WGZ      -0.296700
     26 C26          2.9670     0.2870     4.0970 c          1 WGZ       0.408700
     27 N27          3.4040     0.5480     5.3450 nz         1 WGZ       0.207600
     28 O28          2.8350    -0.8660     3.7270 o          1 WGZ      -0.467100
     29 C29          2.0320    -1.2320    -0.7100 ca         1 WGZ      -0.064300
     30 C30          2.3600    -2.3620     0.0160 ca         1 WGZ      -0.092000
     31 C31          2.8210    -3.4910    -0.6350 ca         1 WGZ      -0.057000
     32 C32          2.9520    -3.4900    -2.0120 ca         1 WGZ      -0.086000
     33 C33          2.6220    -2.3600    -2.7370 ca         1 WGZ      -0.033000
     34 C34          2.1580    -1.2320    -2.0860 ca         1 WGZ      -0.198300
     35 C35          1.7940    -0.0030    -2.8770 c3         1 WGZ       0.641200
     36 F36          2.0050    -0.2450    -4.2380 f          1 WGZ      -0.205300
     37 F37          0.4480     0.3090    -2.6610 f          1 WGZ      -0.205300
     38 F38          2.5930     1.0700    -2.4640 f          1 WGZ      -0.205300
     39 H011        -0.3610    -0.1220     1.0140 hc         1 WGZ       0.031367
     40 H012        -0.3610     0.9390    -0.4020 hc         1 WGZ       0.031367
     41 H013        -0.3610    -0.8170    -0.6120 hc         1 WGZ       0.031367
     42 H02          1.8920     0.8840    -0.5110 h1         1 WGZ       0.046700
     43 H05          1.6230     2.4420     0.2550 ha         1 WGZ       0.180000
     44 H08          3.2470     5.0970    -0.4290 h5         1 WGZ       0.069800
     45 H11          0.9890     9.0330     1.1140 ha         1 WGZ       0.124000
     46 H12         -0.2160     9.1700     3.2360 ha         1 WGZ       0.131000
     47 H22          0.6370     5.0550     4.0420 ha         1 WGZ       0.129000
     48 H15         -0.8410     5.1720     5.0120 h1         1 WGZ       0.013700
     49 H161        -2.8040     6.3530     5.9900 hc         1 WGZ       0.025200
     50 H162        -2.0830     5.2060     7.1320 hc         1 WGZ       0.025200
     51 H211         1.4130     5.7150     5.9210 hc         1 WGZ       0.025200
     52 H212         0.4200     4.8280     7.0920 hc         1 WGZ       0.025200
     53 H171        -1.5680     8.2010     7.0560 h1         1 WGZ       0.018700
     54 H172        -2.5690     7.3520     8.2460 h1         1 WGZ       0.018700
     55 H191        -1.2250     8.0010    10.0890 h1         1 WGZ       0.004700
     56 H192         0.5240     7.7380    10.0600 h1         1 WGZ       0.004700
     57 H193        -0.2030     8.9680     9.0160 h1         1 WGZ       0.004700
     58 H201         0.8130     7.8410     7.0160 h1         1 WGZ       0.018700
     59 H202         1.5550     6.7280     8.1790 h1         1 WGZ       0.018700
     60 H271         3.6690    -0.3080     5.7910 hn         1 WGZ       0.244133
     61 H272         2.6730     0.9850     5.8690 hn         1 WGZ       0.244133
     62 H30          2.2290    -2.3730     1.0910 ha         1 WGZ       0.122000
     63 H31          3.0950    -4.3710    -0.0660 ha         1 WGZ       0.114000
     64 H32          3.3060    -4.3770    -2.5230 ha         1 WGZ       0.121000
     65 H33          2.7320    -2.3570    -3.8140 ha         1 WGZ       0.131000
     66 H273         4.1830     1.1740     5.3010 hn         1 WGZ       0.244133
@<TRIPOS>BOND
     1     1     2 1   
     2     1    39 1   
     3     1    40 1   
     4     1    41 1   
     5     2     3 1   
     6     2    29 1   
     7     2    42 1   
     8     3     4 1   
     9     4     5 1   
    10     4    25 2   
    11     5     6 2   
    12     5    43 1   
    13     6     7 1   
    14     6    24 1   
    15     7     8 1   
    16     7    23 1   
    17     8     9 2   
    18     8    44 1   
    19     9    10 1   
    20    10    11 ar  
    21    10    23 ar  
    22    11    12 ar  
    23    11    45 1   
    24    12    13 ar  
    25    12    46 1   
    26    13    14 1   
    27    13    22 ar  
    28    14    15 1   
    29    15    16 1   
    30    15    21 1   
    31    15    48 1   
    32    16    17 1   
    33    16    49 1   
    34    16    50 1   
    35    17    18 1   
    36    17    53 1   
    37    17    54 1   
    38    18    19 1   
    39    18    20 1   
    40    19    55 1   
    41    19    56 1   
    42    19    57 1   
    43    20    21 1   
    44    20    58 1   
    45    20    59 1   
    46    21    51 1   
    47    21    52 1   
    48    22    23 ar  
    49    22    47 1   
    50    24    25 1   
    51    25    26 1   
    52    26    27 1   
    53    26    28 2   
    54    27    60 1   
    55    27    61 1   
    56    27    66 1   
    57    29    30 ar  
    58    29    34 ar  
    59    30    31 ar  
    60    30    62 1   
    61    31    32 ar  
    62    31    63 1   
    63    32    33 ar  
    64    32    64 1   
    65    33    34 ar  
    66    33    65 1   
    67    34    35 1   
    68    35    36 1   
    69    35    37 1   
    70    35    38 1   
@<TRIPOS>SUBSTRUCTURE
     1 WGZ         1 TEMP              0 ****  ****    0 ROOT
