@<TRIPOS>MOLECULE
molecule
   66    70     1     0     0
SMALL
bcc


@<TRIPOS>ATOM
      1 C01          0.0000     0.0000     0.0000 c3         1 WGZ      -0.116100
      2 C02          1.5300     0.0000     0.0000 c3         1 WGZ       0.162400
      3 O03          2.0070     0.0000     1.3470 os         1 WGZ      -0.265900
      4 C04          2.2130     1.2100     1.9280 cc         1 WGZ       0.309100
      5 C05          1.9830     2.3990     1.2760 cc         1 WGZ      -0.283000
      6 C06          2.2390     3.5060     2.0000 cd         1 WGZ       0.232700
      7 N07          2.0780     4.8120     1.5440 na         1 WGZ      -0.066400
      8 C08          2.5570     5.3260     0.3740 cc         1 WGZ       0.398700
      9 N09          2.2230     6.5780     0.2680 nd         1 WGZ      -0.552100
     10 C10          1.5060     6.9560     1.3590 ca         1 WGZ       0.061400
     11 C11          0.9150     8.1600     1.7510 ca         1 WGZ      -0.019000
     12 C12          0.2420     8.2350     2.9370 ca         1 WGZ      -0.154000
     13 C13          0.1400     7.1210     3.7650 ca         1 WGZ       0.186100
     14 O14         -0.5350     7.2130     4.9430 os         1 WGZ      -0.308900
     15 C15         -0.7040     6.0060     5.6890 c3         1 WGZ       0.137100
     16 C16         -1.9330     6.1350     6.5940 c3         1 WGZ      -0.089400
     17 C17         -1.7080     7.2710     7.5940 c3         1 WGZ       0.165300
     18 N18         -0.5120     6.9890     8.3980 n3         1 WGZ      -0.737600
     19 C19         -0.3430     7.9900     9.4600 c3         1 WGZ       0.153100
     20 C20          0.6880     6.9090     7.5550 c3         1 WGZ       0.165300
     21 C21          0.5350     5.7620     6.5540 c3         1 WGZ      -0.089400
     22 C22          0.7180     5.9200     3.3960 ca         1 WGZ      -0.247000
     23 C23          1.3980     5.8290     2.1910 ca         1 WGZ      -0.060200
     24 S24          2.8060     3.0610     3.6030 ss         1 WGZ      -0.149800
     25 C25          2.6640     1.3500     3.2170 cd         1 WGZ      -0.292700
     26 C26          2.9670     0.2870     4.0970 c          1 WGZ       0.550700
     27 N27          3.4040     0.5480     5.3450 nz         1 WGZ      -0.674400
     28 O28          2.8350    -0.8660     3.7270 o          1 WGZ      -0.440100
     29 C29          2.0320    -1.2320    -0.7100 ca         1 WGZ      -0.062300
     30 C30          2.3600    -2.3620     0.0160 ca         1 WGZ      -0.111000
     31 C31          2.8210    -3.4910    -0.6350 ca         1 WGZ      -0.095000
     32 C32          2.9520    -3.4900    -2.0120 ca         1 WGZ      -0.115000
     33 C33          2.6220    -2.3600    -2.7370 ca         1 WGZ      -0.073000
     34 C34          2.1580    -1.2320    -2.0860 ca         1 WGZ      -0.170300
     35 C35          1.7940    -0.0030    -2.8770 c3         1 WGZ       0.672200
     36 F36          2.0050    -0.2450    -4.2380 f          1 WGZ      -0.220967
     37 F37          0.4480     0.3090    -2.6610 f          1 WGZ      -0.220967
     38 F38          2.5930     1.0700    -2.4640 f          1 WGZ      -0.220967
     39 H011        -0.3610    -0.1220     1.0140 hc         1 WGZ       0.064033
     40 H012        -0.3610     0.9390    -0.4020 hc         1 WGZ       0.064033
     41 H013        -0.3610    -0.8170    -0.6120 hc         1 WGZ       0.064033
     42 H02          1.8920     0.8840    -0.5110 h1         1 WGZ       0.076700
     43 H05          1.6230     2.4420     0.2550 ha         1 WGZ       0.203000
     44 H08          3.2470     5.0970    -0.4290 h5         1 WGZ       0.113800
     45 H11          0.9890     9.0330     1.1140 ha         1 WGZ       0.165000
     46 H12         -0.2160     9.1700     3.2360 ha         1 WGZ       0.164000
     47 H22          0.6370     5.0550     4.0420 ha         1 WGZ       0.134000
     48 H15         -0.8410     5.1720     5.0120 h1         1 WGZ       0.041700
     49 H161        -2.8040     6.3530     5.9900 hc         1 WGZ       0.054450
     50 H162        -2.0830     5.2060     7.1320 hc         1 WGZ       0.054450
     51 H211         1.4130     5.7150     5.9210 hc         1 WGZ       0.054450
     52 H212         0.4200     4.8280     7.0920 hc         1 WGZ       0.054450
     53 H171        -1.5680     8.2010     7.0560 h1         1 WGZ       0.045950
     54 H172        -2.5690     7.3520     8.2460 h1         1 WGZ       0.045950
     55 H191        -1.2250     8.0010    10.0890 h1         1 WGZ       0.037700
     56 H192         0.5240     7.7380    10.0600 h1         1 WGZ       0.037700
     57 H193        -0.2030     8.9680     9.0160 h1         1 WGZ       0.037700
     58 H201         0.8130     7.8410     7.0160 h1         1 WGZ       0.045950
     59 H202         1.5550     6.7280     8.1790 h1         1 WGZ       0.045950
     60 H271         3.6690    -0.3080     5.7910 hn         1 WGZ       0.473800
     61 H272         2.6730     0.9850     5.8690 hn         1 WGZ       0.473800
     62 H30          2.2290    -2.3730     1.0910 ha         1 WGZ       0.152000
     63 H31          3.0950    -4.3710    -0.0660 ha         1 WGZ       0.147000
     64 H32          3.3060    -4.3770    -2.5230 ha         1 WGZ       0.153000
     65 H33          2.7320    -2.3570    -3.8140 ha         1 WGZ       0.163000
     66 H273         4.1830     1.1740     5.3010 hn         1 WGZ       0.473800
@<TRIPOS>BOND
     1     1     2 1
     2     2     3 1
     3     2    29 1
     4     3     4 1
     5     4     5 1
     6     4    25 2
     7     5     6 2
     8     6     7 1
     9     6    24 1
    10     7     8 1
    11     7    23 1
    12     8     9 2
    13     9    10 1
    14    10    11 ar
    15    10    23 ar
    16    11    12 ar
    17    12    13 ar
    18    13    14 1
    19    13    22 ar
    20    14    15 1
    21    15    16 1
    22    15    21 1
    23    16    17 1
    24    17    18 1
    25    18    19 1
    26    18    20 1
    27    20    21 1
    28    22    23 ar
    29    24    25 1
    30    25    26 1
    31    26    27 1
    32    26    28 2
    33    29    30 ar
    34    29    34 ar
    35    30    31 ar
    36    31    32 ar
    37    32    33 ar
    38    33    34 ar
    39    34    35 1
    40    35    36 1
    41    35    37 1
    42    35    38 1
    43     1    39 1
    44     1    40 1
    45     1    41 1
    46     2    42 1
    47     5    43 1
    48     8    44 1
    49    11    45 1
    50    12    46 1
    51    22    47 1
    52    15    48 1
    53    16    49 1
    54    16    50 1
    55    21    51 1
    56    21    52 1
    57    17    53 1
    58    17    54 1
    59    19    55 1
    60    19    56 1
    61    19    57 1
    62    20    58 1
    63    20    59 1
    64    27    60 1
    65    27    61 1
    66    30    62 1
    67    31    63 1
    68    32    64 1
    69    33    65 1
    70    66    27 1
@<TRIPOS>SUBSTRUCTURE
     1 WGZ         1 TEMP              0 ****  ****    0 ROOT
