@<TRIPOS>MOLECULE
WH6
   45    48     1     0     0
SMALL
bcc


@<TRIPOS>ATOM
      1 CAZ          0.0000     0.0000     0.0000 ca         1 WH6      -0.027000
      2 CAN          1.4060     0.0000     0.0000 ca         1 WH6      -0.068000
      3 CAH          2.0790     0.0000     1.1830 ca         1 WH6      -0.122000
      4 CAG          1.3960     0.0020     2.3980 ca         1 WH6      -0.110000
      5 CAL          0.0360     0.0020     2.4370 ca         1 WH6      -0.101000
      6 CAY         -0.6940     0.0020     1.2360 ca         1 WH6      -0.023000
      7 CAM         -2.1000     0.0030     1.2360 ca         1 WH6      -0.124000
      8 CAI         -2.7740     0.0020     0.0530 ca         1 WH6      -0.098000
      9 CAJ         -2.0900     0.0000    -1.1620 ca         1 WH6      -0.099000
     10 CAV         -0.7290     0.0040    -1.2010 ca         1 WH6      -0.032300
     11 CAR         -0.0100     0.0090    -2.5250 c3         1 WH6      -0.023100
     12 CBC          0.3440    -1.4270    -2.9180 c3         1 WH6       0.049700
     13 CAQ          1.1820    -1.4130    -4.1980 c3         1 WH6      -0.168400
     14 CAS          1.6330    -2.8150    -4.5170 c          1 WH6       0.974600
     15 OAE          1.3170    -3.7310    -3.7950 o          1 WH6      -0.895300
     16 OAA          2.3870    -3.0460    -5.6040 o          1 WH6      -0.895300
     17 N1          -0.8870    -2.1870    -3.1480 n          1 WH6      -0.084400
     18 CAX         -1.2410    -3.2890    -2.4630 c          1 WH6       0.675100
     19 OAD         -0.5990    -3.8030    -1.5690 o          1 WH6      -0.614500
     20 CBB         -2.5400    -3.7700    -2.9800 ca         1 WH6      -0.178600
     21 CAP         -3.3680    -4.8330    -2.6650 ca         1 WH6      -0.004000
     22 CAU         -4.5640    -5.0080    -3.3670 ca         1 WH6      -0.104600
     23 CAT         -5.4550    -6.1420    -3.0370 c          1 WH6       0.978200
     24 OAF         -6.6070    -6.3120    -3.7130 o          1 WH6      -0.891800
     25 OAB         -5.1460    -6.9190    -2.1570 o          1 WH6      -0.891800
     26 CAK         -4.9200    -4.1160    -4.3790 ca         1 WH6      -0.079000
     27 CAO         -4.0910    -3.0510    -4.6950 ca         1 WH6      -0.072000
     28 CBA         -2.9050    -2.8710    -4.0030 ca         1 WH6      -0.186600
     29 CAW         -1.8150    -1.8700    -4.0690 c          1 WH6       0.672100
     30 OAC         -1.7670    -0.9250    -4.8300 o          1 WH6      -0.686500
     31 HAN          1.9500    -0.0010    -0.9360 ha         1 WH6       0.125000
     32 HAH          3.1620    -0.0000     1.1810 ha         1 WH6       0.094000
     33 HAG          1.9560     0.0020     3.3250 ha         1 WH6       0.085000
     34 HAL         -0.4820     0.0030     3.3890 ha         1 WH6       0.094000
     35 HAM         -2.6710     0.1030     2.1510 ha         1 WH6       0.093000
     36 HAI         -3.8430     0.1680     0.1090 ha         1 WH6       0.093000
     37 HAJ         -2.7740     0.5030    -1.8350 ha         1 WH6       0.112000
     38 HAR         -0.6500     0.4440    -3.2820 hc         1 WH6       0.035700
     39 HARA         0.8980     0.5940    -2.4400 hc         1 WH6       0.035700
     40 HBC          0.9110    -1.8900    -2.1200 h1         1 WH6       0.070700
     41 HAQ          0.5860    -1.0300    -5.0170 hc         1 WH6       0.025700
     42 HAQA         2.0490    -0.7800    -4.0540 hc         1 WH6       0.025700
     43 HAP         -3.0830    -5.5810    -1.9350 ha         1 WH6       0.132000
     44 HAK         -5.8220    -4.2250    -4.9690 ha         1 WH6       0.120000
     45 HAO         -4.4340    -2.4390    -5.5200 ha         1 WH6       0.091000
@<TRIPOS>BOND
     1     1     2 ar  
     2     1     6 ar  
     3     1    10 ar  
     4     2     3 ar  
     5     2    31 1   
     6     3     4 ar  
     7     3    32 1   
     8     4     5 ar  
     9     4    33 1   
    10     5     6 ar  
    11     5    34 1   
    12     6     7 ar  
    13     7     8 ar  
    14     7    35 1   
    15     8     9 ar  
    16     8    36 1   
    17     9    10 ar  
    18     9    37 1   
    19    10    11 1   
    20    11    12 1   
    21    11    38 1   
    22    11    39 1   
    23    12    13 1   
    24    12    17 1   
    25    12    40 1   
    26    13    14 1   
    27    13    41 1   
    28    13    42 1   
    29    14    15 1   
    30    14    16 1   
    31    17    18 1   
    32    17    29 1   
    33    18    19 2   
    34    18    20 1   
    35    20    21 ar  
    36    20    28 ar  
    37    21    22 ar  
    38    21    43 1   
    39    22    23 1   
    40    22    26 ar  
    41    23    24 1   
    42    23    25 1   
    43    26    27 ar  
    44    26    44 1   
    45    27    28 ar  
    46    27    45 1   
    47    28    29 1   
    48    29    30 2   
@<TRIPOS>SUBSTRUCTURE
     1 WH6         1 TEMP              0 ****  ****    0 ROOT
