@<TRIPOS>MOLECULE
molecule
   47    50     1     0     0
SMALL
bcc


@<TRIPOS>ATOM
      1 C4           0.0000     0.0000     0.0000 ca         1 WHA      -0.098300
      2 C14         -0.6840    -0.0060     3.6620 cp         1 WHA      -0.145500
      3 C5           1.3590     0.0000     0.0000 ca         1 WHA      -0.116000
      4 C6           2.0710     0.0000     1.1980 ca         1 WHA      -0.110000
      5 C11         -2.7630    -0.0060     2.4290 ca         1 WHA      -0.132000
      6 C7           1.4310    -0.0010     2.4000 ca         1 WHA      -0.116000
      7 C8           0.0300    -0.0020     2.4390 ca         1 WHA       0.012000
      8 C9          -0.6930    -0.0010     1.2230 ca         1 WHA      -0.030000
      9 C10         -2.1000    -0.0020     1.2410 ca         1 WHA      -0.064300
     10 C12         -2.0710    -0.0070     3.6360 ca         1 WHA       0.088400
     11 C3          -0.7810     0.0060    -1.2890 c3         1 WHA       0.183700
     12 C1          -2.8510     0.0040    -0.0670 c3         1 WHA       0.182700
     13 O2          -2.0520    -0.6140    -1.0740 os         1 WHA      -0.404600
     14 Cl1         -2.9540    -0.0130     5.1310 cl         1 WHA      -0.084400
     15 C15          0.0410    -0.0090     4.9510 cp         1 WHA       0.814500
     16 N16          1.0240     0.8640     5.1640 nb         1 WHA      -0.761000
     17 N17         -0.2920    -0.8790     5.9020 nb         1 WHA      -0.769000
     18 C18          0.3590    -0.8810     7.0610 ca         1 WHA       0.985900
     19 N19          0.0130    -1.7830     8.0450 nv         1 WHA      -1.053500
     20 N22          1.3440    -0.0130     7.2700 nb         1 WHA      -0.845000
     21 C23          1.6750     0.8610     6.3240 ca         1 WHA       0.821300
     22 S24          2.9750     2.0140     6.6060 ss         1 WHA      -0.209400
     23 C25          3.4560     1.5420     8.2870 c3         1 WHA      -0.026300
     24 C26          4.6050     2.4340     8.7580 c3         1 WHA      -0.062400
     25 C27          5.0110     2.0340    10.1790 c3         1 WHA      -0.157400
     26 C28          6.1430     2.9140    10.6440 c          1 WHA       0.475100
     27 O29          6.5820     3.7750     9.9120 o          1 WHA      -0.384100
     28 N30          6.6680     2.7430    11.8740 nz         1 WHA      -0.686400
     29 H1           1.8950     0.0010    -0.9420 ha         1 WHA       0.136000
     30 H2           3.1540     0.0020     1.1720 ha         1 WHA       0.133000
     31 H3          -3.8460    -0.0060     2.4350 ha         1 WHA       0.153000
     32 H4           2.0010    -0.0010     3.3210 ha         1 WHA       0.144000
     33 H5          -0.2340    -0.5460    -2.0440 h1         1 WHA       0.064200
     34 H6          -0.9280     1.0280    -1.6160 h1         1 WHA       0.064200
     35 H7          -3.7760    -0.5480     0.0470 h1         1 WHA       0.066700
     36 H8          -3.0660     1.0260    -0.3540 h1         1 WHA       0.066700
     37 H9           0.3040    -2.7380     7.9730 hn         1 WHA       0.453800
     38 H10         -0.5430    -1.4870     8.8230 hn         1 WHA       0.453800
     39 H11          3.7760     0.5070     8.2940 h1         1 WHA       0.082700
     40 H12          2.6090     1.6630     8.9520 h1         1 WHA       0.082700
     41 H13          5.4520     2.3140     8.0930 hc         1 WHA       0.079200
     42 H14          4.2850     3.4690     8.7520 hc         1 WHA       0.079200
     43 H15          5.3320     1.0000    10.1850 hc         1 WHA       0.096700
     44 H16          4.1640     2.1530    10.8440 hc         1 WHA       0.096700
     45 H17          5.9490     2.8530    12.5610 hn         1 WHA       0.478800
     46 H18          7.0590     1.8250    11.9450 hn         1 WHA       0.478800
     47 H303         7.3840     3.4240    12.0280 hn         1 WHA       0.478800
@<TRIPOS>BOND
     1    11    13 1
     2    11     1 1
     3    13    12 1
     4     3     1 ar
     5     3     4 ar
     6     1     8 ar
     7     4     6 ar
     8    12     9 1
     9    27    26 2
    10     8     9 ar
    11     8     7 ar
    12     9     5 ar
    13     6     7 ar
    14    26    28 1
    15    26    25 1
    16     7     2 ar
    17    24    25 1
    18    24    23 1
    19     5    10 ar
    20     2    10 ar
    21     2    15 1
    22    23    22 1
    23    10    14 1
    24    16    15 ar
    25    16    21 ar
    26    15    17 ar
    27    22    21 1
    28    21    20 ar
    29    17    18 ar
    30    20    18 ar
    31    18    19 1
    32     3    29 1
    33     4    30 1
    34     5    31 1
    35     6    32 1
    36    11    33 1
    37    11    34 1
    38    12    35 1
    39    12    36 1
    40    19    37 1
    41    19    38 1
    42    23    39 1
    43    23    40 1
    44    24    41 1
    45    24    42 1
    46    25    43 1
    47    25    44 1
    48    28    45 1
    49    28    46 1
    50    47    28 1
@<TRIPOS>SUBSTRUCTURE
     1 WHA         1 TEMP              0 ****  ****    0 ROOT
