@<TRIPOS>MOLECULE
WHA
   47    50     1     0     0
SMALL
bcc


@<TRIPOS>ATOM
      1 C4           0.0000     0.0000     0.0000 ca         1 WHA      -0.106300
      2 C14         -0.6840    -0.0060     3.6620 cp         1 WHA      -0.171500
      3 C5           1.3590     0.0000     0.0000 ca         1 WHA      -0.089000
      4 C6           2.0710     0.0000     1.1980 ca         1 WHA      -0.078000
      5 C11         -2.7630    -0.0060     2.4290 ca         1 WHA      -0.110000
      6 C7           1.4310    -0.0010     2.4000 ca         1 WHA      -0.105000
      7 C8           0.0300    -0.0020     2.4390 ca         1 WHA       0.017000
      8 C9          -0.6930    -0.0010     1.2230 ca         1 WHA      -0.023000
      9 C10         -2.1000    -0.0020     1.2410 ca         1 WHA      -0.070300
     10 C12         -2.0710    -0.0070     3.6360 ca         1 WHA       0.023400
     11 C3          -0.7810     0.0060    -1.2890 c3         1 WHA       0.273700
     12 C1          -2.8510     0.0040    -0.0670 c3         1 WHA       0.270700
     13 O2          -2.0520    -0.6140    -1.0740 os         1 WHA      -0.398600
     14 Cl1         -2.9540    -0.0130     5.1310 cl         1 WHA      -0.006400
     15 C15          0.0410    -0.0090     4.9510 cp         1 WHA       0.741500
     16 N16          1.0240     0.8640     5.1640 nb         1 WHA      -0.629000
     17 N17         -0.2920    -0.8790     5.9020 nb         1 WHA      -0.659000
     18 C18          0.3590    -0.8810     7.0610 ca         1 WHA       0.772900
     19 N19          0.0130    -1.7830     8.0450 nv         1 WHA      -0.620500
     20 N22          1.3440    -0.0130     7.2700 nb         1 WHA      -0.735000
     21 C23          1.6750     0.8610     6.3240 ca         1 WHA       0.779300
     22 S24          2.9750     2.0140     6.6060 ss         1 WHA      -0.345400
     23 C25          3.4560     1.5420     8.2870 c3         1 WHA       0.064700
     24 C26          4.6050     2.4340     8.7580 c3         1 WHA       0.000600
     25 C27          5.0110     2.0340    10.1790 c3         1 WHA      -0.090400
     26 C28          6.1430     2.9140    10.6440 c          1 WHA       0.306100
     27 O29          6.5820     3.7750     9.9120 o          1 WHA      -0.383100
     28 N30          6.6680     2.7430    11.8740 nz         1 WHA       0.197600
     29 H1           1.8950     0.0010    -0.9420 ha         1 WHA       0.109000
     30 H2           3.1540     0.0020     1.1720 ha         1 WHA       0.102000
     31 H3          -3.8460    -0.0060     2.4350 ha         1 WHA       0.123000
     32 H4           2.0010    -0.0010     3.3210 ha         1 WHA       0.116000
     33 H5          -0.2340    -0.5460    -2.0440 h1         1 WHA       0.019700
     34 H6          -0.9280     1.0280    -1.6160 h1         1 WHA       0.019700
     35 H7          -3.7760    -0.5480     0.0470 h1         1 WHA       0.021700
     36 H8          -3.0660     1.0260    -0.3540 h1         1 WHA       0.021700
     37 H9           0.3040    -2.7380     7.9730 hn         1 WHA       0.288300
     38 H10         -0.5430    -1.4870     8.8230 hn         1 WHA       0.288300
     39 H11          3.7760     0.5070     8.2940 h1         1 WHA       0.052700
     40 H12          2.6090     1.6630     8.9520 h1         1 WHA       0.052700
     41 H13          5.4520     2.3140     8.0930 hc         1 WHA       0.048700
     42 H14          4.2850     3.4690     8.7520 hc         1 WHA       0.048700
     43 H15          5.3320     1.0000    10.1850 hc         1 WHA       0.058700
     44 H16          4.1640     2.1530    10.8440 hc         1 WHA       0.058700
     45 H17          5.9490     2.8530    12.5610 hn         1 WHA       0.247800
     46 H18          7.0590     1.8250    11.9450 hn         1 WHA       0.247800
     47 H303         7.3840     3.4240    12.0280 hn         1 WHA       0.247800
@<TRIPOS>BOND
     1     1     3 ar  
     2     1     8 ar  
     3     1    11 1   
     4     2     7 ar  
     5     2    10 ar  
     6     2    15 1   
     7     3     4 ar  
     8     3    29 1   
     9     4     6 ar  
    10     4    30 1   
    11     5     9 ar  
    12     5    10 ar  
    13     5    31 1   
    14     6     7 ar  
    15     6    32 1   
    16     7     8 ar  
    17     8     9 ar  
    18     9    12 1   
    19    10    14 1   
    20    11    13 1   
    21    11    33 1   
    22    11    34 1   
    23    12    13 1   
    24    12    35 1   
    25    12    36 1   
    26    15    16 ar  
    27    15    17 ar  
    28    16    21 ar  
    29    17    18 ar  
    30    18    19 1   
    31    18    20 ar  
    32    19    37 1   
    33    19    38 1   
    34    20    21 ar  
    35    21    22 1   
    36    22    23 1   
    37    23    24 1   
    38    23    39 1   
    39    23    40 1   
    40    24    25 1   
    41    24    41 1   
    42    24    42 1   
    43    25    26 1   
    44    25    43 1   
    45    25    44 1   
    46    26    27 2   
    47    26    28 1   
    48    28    45 1   
    49    28    46 1   
    50    28    47 1   
@<TRIPOS>SUBSTRUCTURE
     1 WHA         1 TEMP              0 ****  ****    0 ROOT
