@<TRIPOS>MOLECULE
WHF
   24    25     1     0     0
SMALL
bcc


@<TRIPOS>ATOM
      1 CAE         0.0090   -0.2840   -0.0420 cc        1 WHF     -0.081000
      2 CAC         1.3630    0.1570   -0.0940 cc        1 WHF     -0.174000
      3 CAD         1.7620    0.7010    1.1130 cd        1 WHF     -0.159100
      4 SAJ         0.5470    0.6700    2.2430 ss        1 WHF      0.080200
      5 CAO        -0.5570   -0.0570    1.2060 cd        1 WHF     -0.233700
      6 CAL        -1.9290   -0.4010    1.5580 c         1 WHF      0.610700
      7 OAB        -2.7370   -0.8340    0.7260 o         1 WHF     -0.537100
      8 CAF        -2.2920   -0.2200    3.0090 c3        1 WHF     -0.174400
      9 CAG        -3.7880   -0.0560    3.1950 c3        1 WHF     -0.097700
     10 CAN        -4.1710   -0.0570    4.6250 cc        1 WHF      0.335700
     11 SAK        -5.4740   -1.0150    5.2180 ss        1 WHF     -0.207800
     12 NAI        -3.5800    0.6800    5.5910 nd        1 WHF     -0.299000
     13 NAH        -4.1110    0.5470    6.7680 nd        1 WHF     -0.381000
     14 CAM        -5.1630   -0.3380    6.7960 cc        1 WHF      0.575300
     15 NAA        -5.8360   -0.7670    7.9290 nh        1 WHF     -0.887500
     16 HAE        -0.5220   -0.7440   -0.8810 ha        1 WHF      0.171000
     17 HAC         1.9900    0.0700   -0.9830 ha        1 WHF      0.159000
     18 HAD         2.7520    1.1080    1.3180 h4        1 WHF      0.175000
     19 HAF1       -1.9330   -1.1260    3.5680 hc        1 WHF      0.079700
     20 HAF2       -1.7550    0.6730    3.4290 hc        1 WHF      0.079700
     21 HAG1       -4.1180    0.9100    2.7230 hc        1 WHF      0.074200
     22 HAG2       -4.3220   -0.8870    2.6580 hc        1 WHF      0.074200
     23 HAA1       -6.8270   -0.7960    7.8160 hn        1 WHF      0.407800
     24 HAA2       -5.5530   -0.3240    8.7800 hn        1 WHF      0.407800
@<TRIPOS>BOND
     1    1    2 1   
     2    1    5 2   
     3    1   16 1   
     4    2    3 2   
     5    2   17 1   
     6    3    4 1   
     7    3   18 1   
     8    4    5 1   
     9    5    6 1   
    10    6    7 2   
    11    6    8 1   
    12    8    9 1   
    13    8   19 1   
    14    8   20 1   
    15    9   10 1   
    16    9   21 1   
    17    9   22 1   
    18   10   11 1   
    19   10   12 2   
    20   11   14 1   
    21   12   13 1   
    22   13   14 2   
    23   14   15 1   
    24   15   23 1   
    25   15   24 1   
@<TRIPOS>SUBSTRUCTURE
     1 WHF         1 TEMP              0 ****  ****    0 ROOT
