@<TRIPOS>MOLECULE
molecule
   57    60     1     0     0
SMALL
bcc


@<TRIPOS>ATOM
      1 C32          0.0000     0.0000     0.0000 ca         1 WHH      -0.093000
      2 C12         11.8500    -9.3680     5.4040 ca         1 WHH      -0.102500
      3 C14         12.4240    -7.0230     5.3950 ca         1 WHH      -0.102500
      4 C33          1.3830     0.0000     0.0000 ca         1 WHH      -0.149000
      5 C11         11.2370    -9.2160     4.1770 ca         1 WHH      -0.153000
      6 C15         11.8090    -6.8850     4.1680 ca         1 WHH      -0.153000
      7 C3           4.3960    -6.3400     1.1580 ca         1 WHH      -0.111000
      8 C31         -0.6920     0.0060     1.1950 ca         1 WHH      -0.213000
      9 C2           4.8050    -7.6550     1.1490 ca         1 WHH      -0.128000
     10 C29          1.3880    -0.0000     2.3950 ca         1 WHH      -0.140000
     11 C5           6.7220    -5.6460     1.1570 ca         1 WHH      -0.201600
     12 C13         12.4490    -8.2700     6.0230 ca         1 WHH      -0.098600
     13 C10         11.2160    -7.9780     3.5600 ca         1 WHH      -0.124300
     14 C28          2.0760     0.0000     1.1960 ca         1 WHH      -0.084300
     15 C4           5.3460    -5.3160     1.1630 ca         1 WHH       0.180400
     16 C30          0.0000     0.0120     2.3970 ca         1 WHH       0.139100
     17 C6           7.1190    -6.9840     1.1590 ca         1 WHH       0.169100
     18 C1           6.1540    -7.9810     1.1500 ca         1 WHH       0.092900
     19 C19          7.6990    -4.5480     1.1610 c          1 WHH       0.706100
     20 C22          5.8640    -3.0590     1.1730 cc         1 WHH       0.463900
     21 C24          5.3820    -1.6560     1.1810 c          1 WHH       0.587800
     22 C35         -2.1050     0.0170     3.5000 c3         1 WHH       0.129700
     23 C9          10.5460    -7.8190     2.2190 c3         1 WHH      -0.021100
     24 C27          3.5830    -0.0120     1.1930 c3         1 WHH       0.161300
     25 C8           9.0740    -7.4580     2.4250 c3         1 WHH       0.154400
     26 N23          4.9820    -4.0180     1.1700 nd         1 WHH      -0.645100
     27 N21          7.2160    -3.2830     1.1680 ns         1 WHH      -0.454400
     28 N26          4.0590    -1.3980     1.1850 ns         1 WHH      -0.553900
     29 O17         13.1260    -9.5110     7.8810 o          1 WHH      -0.838300
     30 O25          6.1790    -0.7390     1.1840 o          1 WHH      -0.605100
     31 O18         13.6840    -7.3630     7.9310 o          1 WHH      -0.838300
     32 O34         -0.6780     0.0180     3.5740 os         1 WHH      -0.325900
     33 F36          6.5300    -9.2790     1.1520 f          1 WHH      -0.124900
     34 H1          -0.5410    -0.0020    -0.9390 ha         1 WHH       0.132000
     35 H2          11.8650   -10.3380     5.8860 ha         1 WHH       0.150000
     36 H3          12.8870    -6.1660     5.8690 ha         1 WHH       0.150000
     37 H4           1.9230    -0.0020    -0.9390 ha         1 WHH       0.136000
     38 H5          10.7720   -10.0670     3.6960 ha         1 WHH       0.109000
     39 H6          11.7880    -5.9190     3.6790 ha         1 WHH       0.109000
     40 H7           3.3390    -6.1000     1.1570 ha         1 WHH       0.149000
     41 H8          -1.7750     0.0110     1.1930 ha         1 WHH       0.135000
     42 H9           4.0640    -8.4450     1.1420 ha         1 WHH       0.148000
     43 H10          1.9320     0.0020     3.3320 ha         1 WHH       0.152000
     44 H11         -2.4400     0.8990     2.9680 h1         1 WHH       0.041367
     45 H12         -2.5180     0.0210     4.5010 h1         1 WHH       0.041367
     46 H13         -2.4390    -0.8700     2.9750 h1         1 WHH       0.041367
     47 H14         10.6160    -8.7490     1.6680 hc         1 WHH       0.052200
     48 H15         11.0370    -7.0310     1.6610 hc         1 WHH       0.052200
     49 H16          3.9500     0.4910     2.0790 h1         1 WHH       0.062700
     50 H17          3.9460     0.4990     0.3100 h1         1 WHH       0.062700
     51 H18          9.0040    -6.5280     2.9760 h1         1 WHH       0.038700
     52 H19          8.5830    -8.2460     2.9830 h1         1 WHH       0.038700
     53 H20          7.8490    -2.5080     1.1710 hn         1 WHH       0.361500
     54 H21          3.4030    -2.1530     1.2050 hn         1 WHH       0.345500
     55 O20          8.8960    -4.7670     1.1570 o          1 WHH      -0.576500
     56 O7           8.4380    -7.3070     1.1550 os         1 WHH      -0.337900
     57 C16         13.1060    -8.4250     7.3360 c          1 WHH       0.881200
@<TRIPOS>BOND
     1    22    32 1
     2    32    16 1
     3    16     8 ar
     4    16    10 ar
     5     8     1 ar
     6    10    14 ar
     7     1     4 ar
     8    14     4 ar
     9    14    24 1
    10    24    28 1
    11    30    21 2
    12    29    57 1
    13    28    21 1
    14    21    20 1
    15     2     5 ar
    16     2    12 ar
    17    57    12 1
    18    57    31 1
    19     5    13 ar
    20    27    20 1
    21    27    19 1
    22    20    26 2
    23    12     3 ar
    24    55    19 2
    25    19    11 1
    26    26    15 1
    27    13    23 1
    28    13     6 ar
    29     3     6 ar
    30    23    25 1
    31    11    15 ar
    32    11    17 ar
    33    15     7 ar
    34    25    56 1
    35    17    56 1
    36    17    18 ar
    37     7     9 ar
    38    18     9 ar
    39    18    33 1
    40     1    34 1
    41     2    35 1
    42     3    36 1
    43     4    37 1
    44     5    38 1
    45     6    39 1
    46     7    40 1
    47     8    41 1
    48     9    42 1
    49    10    43 1
    50    22    44 1
    51    22    45 1
    52    22    46 1
    53    23    47 1
    54    23    48 1
    55    24    49 1
    56    24    50 1
    57    25    51 1
    58    25    52 1
    59    27    53 1
    60    28    54 1
@<TRIPOS>SUBSTRUCTURE
     1 WHH         1 TEMP              0 ****  ****    0 ROOT
