@<TRIPOS>MOLECULE
WHJ
   51    53     1     0     0
SMALL
bcc


@<TRIPOS>ATOM
      1 O1           0.0000     0.0000     0.0000 o          1 WHJ      -0.690500
      2 C9           1.2190     0.0000     0.0000 c          1 WHJ       0.584700
      3 N1           1.8740     0.0000     1.1750 ns         1 WHJ       0.056900
      4 C7           3.2530    -0.0010     1.2180 ca         1 WHJ      -0.096400
      5 C6           3.9340    -0.0010     2.4370 ca         1 WHJ       0.083100
      6 O2           3.2400    -0.0000     3.6070 oh         1 WHJ      -0.493100
      7 C5           5.3150    -0.0020     2.4480 ca         1 WHJ      -0.119000
      8 C4           6.0320    -0.0030     1.2590 ca         1 WHJ      -0.088000
      9 C8           1.9080    -0.0070    -1.2310 cc         1 WHJ      -0.200200
     10 C1           3.2640    -0.0080    -1.2550 cd         1 WHJ      -0.031200
     11 C2           3.9860    -0.0020     0.0190 ca         1 WHJ      -0.097800
     12 C3           5.3850    -0.0030     0.0560 ca         1 WHJ      -0.092300
     13 C10          6.1760    -0.0030    -1.2260 c3         1 WHJ       0.241400
     14 O4           7.4660     0.5660    -0.9910 oh         1 WHJ      -0.588800
     15 C11          6.3370    -1.4400    -1.7260 c3         1 WHJ       0.131800
     16 N2           7.1070    -1.4400    -2.9770 n7         1 WHJ      -0.590200
     17 C12          7.2810    -2.8070    -3.4880 c3         1 WHJ       0.116500
     18 C13          8.4950    -3.4510    -2.8150 c3         1 WHJ      -0.031100
     19 C14          7.5000    -2.7620    -5.0010 c3         1 WHJ       0.042900
     20 C15          6.2560    -2.2410    -5.6730 ca         1 WHJ      -0.123300
     21 C20          6.1050    -0.8830    -5.8870 ca         1 WHJ      -0.050000
     22 C19          4.9650    -0.4030    -6.5020 ca         1 WHJ      -0.179500
     23 C18          3.9720    -1.2840    -6.9060 ca         1 WHJ       0.146100
     24 O3           2.8500    -0.8140    -7.5130 os         1 WHJ      -0.309900
     25 C21          1.8700    -1.7790    -7.9020 c3         1 WHJ       0.243700
     26 C17          4.1270    -2.6460    -6.6910 ca         1 WHJ      -0.179500
     27 C16          5.2710    -3.1210    -6.0800 ca         1 WHJ      -0.050000
     28 H1           1.3530     0.0000     2.0300 hn         1 WHJ       0.186500
     29 H8           1.3520    -0.0100    -2.1610 ha         1 WHJ       0.136000
     30 H2           3.4560     0.7740     4.1000 ho         1 WHJ       0.408000
     31 H5           5.8440    -0.0020     3.3930 ha         1 WHJ       0.113000
     32 H4           7.1150    -0.0040     1.2860 ha         1 WHJ       0.127000
     33 HA           3.8010    -0.0130    -2.1960 ha         1 WHJ       0.124000
     34 H10          5.6540     0.5830    -1.9730 h1         1 WHJ       0.021700
     35 HB           7.4660     1.4680    -1.2630 ho         1 WHJ       0.396000
     36 H111         5.3590    -1.8720    -1.9040 h1         1 WHJ       0.020700
     37 H112         6.8590    -2.0260    -0.9800 h1         1 WHJ       0.020700
     38 HC           8.0050    -1.0280    -2.8160 hn         1 WHJ       0.269800
     39 H12          6.3950    -3.3900    -3.2680 h1         1 WHJ       0.036700
     40 H131         8.7440    -4.3730    -3.3270 hc         1 WHJ       0.009367
     41 H132         9.3380    -2.7720    -2.8640 hc         1 WHJ       0.009367
     42 H133         8.2630    -3.6650    -1.7790 hc         1 WHJ       0.009367
     43 H141         7.7150    -3.7600    -5.3640 hc         1 WHJ       0.019200
     44 H142         8.3330    -2.1080    -5.2260 hc         1 WHJ       0.019200
     45 H20          6.8800    -0.1960    -5.5710 ha         1 WHJ       0.105000
     46 H16          5.3920    -4.1850    -5.9120 ha         1 WHJ       0.105000
     47 H19          4.8470     0.6610    -6.6690 ha         1 WHJ       0.116500
     48 H17          3.3550    -3.3360    -7.0070 ha         1 WHJ       0.116500
     49 H211         1.5250    -2.3160    -7.0270 h1         1 WHJ      -0.002967
     50 H212         1.0330    -1.2740    -8.3690 h1         1 WHJ      -0.002967
     51 H213         2.3090    -2.4760    -8.6050 h1         1 WHJ      -0.002967
@<TRIPOS>BOND
     1     1     2 2   
     2     2     3 1   
     3     2     9 1   
     4     3     4 1   
     5     3    28 1   
     6     4     5 ar  
     7     4    11 ar  
     8     5     6 1   
     9     5     7 ar  
    10     6    30 1   
    11     7     8 ar  
    12     7    31 1   
    13     8    12 ar  
    14     8    32 1   
    15     9    10 2   
    16     9    29 1   
    17    10    11 1   
    18    10    33 1   
    19    11    12 ar  
    20    12    13 1   
    21    13    14 1   
    22    13    15 1   
    23    13    34 1   
    24    14    35 1   
    25    15    16 1   
    26    15    36 1   
    27    15    37 1   
    28    16    17 1   
    29    16    38 1   
    30    17    18 1   
    31    17    19 1   
    32    17    39 1   
    33    18    40 1   
    34    18    41 1   
    35    18    42 1   
    36    19    20 1   
    37    19    43 1   
    38    19    44 1   
    39    20    21 ar  
    40    20    27 ar  
    41    21    22 ar  
    42    21    45 1   
    43    22    23 ar  
    44    22    47 1   
    45    23    24 1   
    46    23    26 ar  
    47    24    25 1   
    48    25    49 1   
    49    25    50 1   
    50    25    51 1   
    51    26    27 ar  
    52    26    48 1   
    53    27    46 1   
@<TRIPOS>SUBSTRUCTURE
     1 WHJ         1 TEMP              0 ****  ****    0 ROOT
