@<TRIPOS>MOLECULE
WHU
   40    42     1     0     0
SMALL
bcc


@<TRIPOS>ATOM
      1 N01          0.0000     0.0000     0.0000 nv         1 WHU      -0.469500
      2 C02          1.3760     0.0000     0.0000 cc         1 WHU       0.353400
      3 N03          2.1390     0.0000     1.0740 nd         1 WHU      -0.685000
      4 C04          3.4230     0.0000     0.7160 cd         1 WHU       0.450300
      5 Cl           4.7850     0.0000     1.7940 cl         1 WHU      -0.007000
      6 C06          3.4780    -0.0010    -0.6630 cc         1 WHU      -0.530200
      7 N07          2.1580    -0.0060    -1.1020 na         1 WHU       0.224100
      8 C08          4.6450    -0.0010    -1.4680 c          1 WHU       0.671700
      9 O09          5.7450    -0.0020    -0.9470 o          1 WHU      -0.617100
     10 N10          4.5350    -0.0010    -2.8120 ns         1 WHU      -0.248900
     11 C11          5.7410    -0.0020    -3.6450 c3         1 WHU      -0.025700
     12 C12          5.3460    -0.0020    -5.0990 ca         1 WHU      -0.073300
     13 C13          5.3660    -1.1820    -5.8210 ca         1 WHU      -0.063000
     14 C14          5.0050    -1.1850    -7.1550 ca         1 WHU      -0.059000
     15 C15          4.6230    -0.0080    -7.7730 ca         1 WHU       0.016100
     16 Br           4.1290    -0.0160    -9.5980 br         1 WHU      -0.071100
     17 C17          4.6010     1.1770    -7.0520 ca         1 WHU       0.086100
     18 O18          4.2260     2.3360    -7.6580 os         1 WHU      -0.197200
     19 C19          2.9100     2.6700    -7.6330 ca         1 WHU       0.117100
     20 C20          1.9940     1.8390    -7.0020 ca         1 WHU      -0.190000
     21 C21          0.6520     2.1750    -6.9740 ca         1 WHU       0.018400
     22 Cl2         -0.4850     1.1290    -6.1820 cl         1 WHU      -0.015400
     23 C23          0.2150     3.3410    -7.5720 ca         1 WHU      -0.115000
     24 C24          1.1290     4.1820    -8.2080 ca         1 WHU       0.113000
     25 C27          2.4830     3.8450    -8.2310 ca         1 WHU      -0.119000
     26 C25          0.6800     5.3920    -8.8300 cg         1 WHU       0.221800
     27 N26          0.3050     6.3440    -9.3240 n1         1 WHU      -0.362800
     28 C28          4.9600     1.1780    -5.7110 ca         1 WHU       0.094900
     29 F29          4.9360     2.3290    -5.0040 f          1 WHU      -0.112900
     30 H011        -0.5540     0.1550     0.8190 hn         1 WHU       0.254800
     31 H012        -0.3950     0.4270    -0.8150 hn         1 WHU       0.254800
     32 H07          1.8380     0.5400    -1.8770 hn         1 WHU       0.119700
     33 H10          4.3240     0.8610    -3.2730 hn         1 WHU       0.183500
     34 H111         5.8310    -1.0790    -3.7050 h1         1 WHU       0.055700
     35 H112         6.6820    -0.0920    -3.1150 h1         1 WHU       0.055700
     36 H13          5.5610    -1.9710    -5.1050 ha         1 WHU       0.134000
     37 H14          4.8240    -2.0700    -7.7520 ha         1 WHU       0.127000
     38 H20          2.5010     1.1190    -6.3700 ha         1 WHU       0.134000
     39 H27          3.3890     4.1120    -8.7630 ha         1 WHU       0.145000
     40 H23         -0.8410     3.5810    -7.6100 ha         1 WHU       0.130000
@<TRIPOS>BOND
     1     1     2 1   
     2     1    30 1   
     3     1    31 1   
     4     2     3 2   
     5     2     7 1   
     6     3     4 1   
     7     4     5 1   
     8     4     6 2   
     9     6     7 1   
    10     6     8 1   
    11     7    32 1   
    12     8     9 2   
    13     8    10 1   
    14    10    11 1   
    15    10    33 1   
    16    11    12 1   
    17    11    34 1   
    18    11    35 1   
    19    12    13 ar  
    20    12    28 ar  
    21    13    14 ar  
    22    13    36 1   
    23    14    15 ar  
    24    14    37 1   
    25    15    16 1   
    26    15    17 ar  
    27    17    18 1   
    28    17    28 ar  
    29    18    19 1   
    30    19    20 ar  
    31    19    25 ar  
    32    20    21 ar  
    33    20    38 1   
    34    21    22 1   
    35    21    23 ar  
    36    23    24 ar  
    37    23    40 1   
    38    24    25 ar  
    39    24    26 1   
    40    25    39 1   
    41    26    27 3   
    42    28    29 1   
@<TRIPOS>SUBSTRUCTURE
     1 WHU         1 TEMP              0 ****  ****    0 ROOT
