@<TRIPOS>MOLECULE
molecule
   40    42     1     0     0
SMALL
bcc


@<TRIPOS>ATOM
      1 N01          0.0000     0.0000     0.0000 nv         1 WHU      -0.936500
      2 C02          1.3760     0.0000     0.0000 cc         1 WHU       0.689400
      3 N03          2.1390     0.0000     1.0740 nd         1 WHU      -0.758000
      4 C04          3.4230     0.0000     0.7160 cd         1 WHU       0.544300
      5 Cl           4.7850     0.0000     1.7940 cl         1 WHU      -0.092000
      6 C06          3.4780    -0.0010    -0.6630 cc         1 WHU      -0.336200
      7 N07          2.1580    -0.0060    -1.1020 na         1 WHU      -0.277900
      8 C08          4.6450    -0.0010    -1.4680 c          1 WHU       0.688700
      9 O09          5.7450    -0.0020    -0.9470 o          1 WHU      -0.572100
     10 N10          4.5350    -0.0010    -2.8120 ns         1 WHU      -0.487900
     11 C11          5.7410    -0.0020    -3.6450 c3         1 WHU      -0.021700
     12 C12          5.3460    -0.0020    -5.0990 ca         1 WHU      -0.079300
     13 C13          5.3660    -1.1820    -5.8210 ca         1 WHU      -0.082000
     14 C14          5.0050    -1.1850    -7.1550 ca         1 WHU      -0.093000
     15 C15          4.6230    -0.0080    -7.7730 ca         1 WHU      -0.010900
     16 Br           4.1290    -0.0160    -9.5980 br         1 WHU      -0.045100
     17 C17          4.6010     1.1770    -7.0520 ca         1 WHU       0.071100
     18 O18          4.2260     2.3360    -7.6580 os         1 WHU      -0.225200
     19 C19          2.9100     2.6700    -7.6330 ca         1 WHU       0.110100
     20 C20          1.9940     1.8390    -7.0020 ca         1 WHU      -0.188000
     21 C21          0.6520     2.1750    -6.9740 ca         1 WHU       0.068400
     22 Cl2         -0.4850     1.1290    -6.1820 cl         1 WHU      -0.094400
     23 C23          0.2150     3.3410    -7.5720 ca         1 WHU      -0.120000
     24 C24          1.1290     4.1820    -8.2080 ca         1 WHU       0.053000
     25 C27          2.4830     3.8450    -8.2310 ca         1 WHU      -0.124000
     26 C25          0.6800     5.3920    -8.8300 cg         1 WHU       0.236800
     27 N26          0.3050     6.3440    -9.3240 n1         1 WHU      -0.341800
     28 C28          4.9600     1.1780    -5.7110 ca         1 WHU       0.126900
     29 F29          4.9360     2.3290    -5.0040 f          1 WHU      -0.119900
     30 H011        -0.5540     0.1550     0.8190 hn         1 WHU       0.427300
     31 H012        -0.3950     0.4270    -0.8150 hn         1 WHU       0.427300
     32 H07          1.8380     0.5400    -1.8770 hn         1 WHU       0.291700
     33 H10          4.3240     0.8610    -3.2730 hn         1 WHU       0.280500
     34 H111         5.8310    -1.0790    -3.7050 h1         1 WHU       0.085700
     35 H112         6.6820    -0.0920    -3.1150 h1         1 WHU       0.085700
     36 H13          5.5610    -1.9710    -5.1050 ha         1 WHU       0.165000
     37 H14          4.8240    -2.0700    -7.7520 ha         1 WHU       0.162000
     38 H20          2.5010     1.1190    -6.3700 ha         1 WHU       0.153000
     39 H27          3.3890     4.1120    -8.7630 ha         1 WHU       0.177000
     40 H23         -0.8410     3.5810    -7.6100 ha         1 WHU       0.161000
@<TRIPOS>BOND
     1     1     2 1
     2     2     3 2
     3     2     7 1
     4     3     4 1
     5     4     5 1
     6     4     6 2
     7     6     7 1
     8     6     8 1
     9     8     9 2
    10     8    10 1
    11    10    11 1
    12    11    12 1
    13    12    13 ar
    14    12    28 ar
    15    13    14 ar
    16    14    15 ar
    17    15    16 1
    18    15    17 ar
    19    17    18 1
    20    17    28 ar
    21    18    19 1
    22    19    20 ar
    23    19    25 ar
    24    20    21 ar
    25    21    22 1
    26    21    23 ar
    27    23    24 ar
    28    24    25 ar
    29    24    26 1
    30    26    27 3
    31    28    29 1
    32     1    30 1
    33     1    31 1
    34     7    32 1
    35    10    33 1
    36    11    34 1
    37    11    35 1
    38    13    36 1
    39    14    37 1
    40    20    38 1
    41    25    39 1
    42    23    40 1
@<TRIPOS>SUBSTRUCTURE
     1 WHU         1 TEMP              0 ****  ****    0 ROOT
