@<TRIPOS>MOLECULE
WHW
   48    48     1     0     0
SMALL
bcc


@<TRIPOS>ATOM
      1 C1         -0.0330   -0.0650   -0.0670 c         1 WHW      0.907600
      2 O1          0.8390    0.8440   -0.1890 o         1 WHW     -0.852300
      3 C2         -0.7730   -0.1970    1.2760 c3        1 WHW     -0.194400
      4 O2         -0.3490   -0.8660   -0.9930 o         1 WHW     -0.852300
      5 C3          0.1860   -0.1220    2.4390 c3        1 WHW     -0.065400
      6 O3          0.3410    1.4660   13.2830 o         1 WHW     -0.534100
      7 C4         -0.5380   -0.0600    3.7670 c3        1 WHW     -0.078400
      8 C5          0.4360    0.0050    4.9240 c3        1 WHW     -0.079400
      9 C6         -0.2820    0.0740    6.2540 c3        1 WHW     -0.079400
     10 C7          0.6990    0.1430    7.4050 c3        1 WHW     -0.080400
     11 C8         -0.0180    0.2020    8.7370 c3        1 WHW     -0.072400
     12 C9          0.9510    0.2680    9.9010 c3        1 WHW     -0.053500
     13 C10         1.6230    1.6100   10.0250 c2        1 WHW     -0.090200
     14 C11         1.4750    2.1480   11.2500 ce        1 WHW     -0.272200
     15 C12         0.6550    1.2600   12.1110 c         1 WHW      0.567300
     16 C13         0.2400    0.0600   11.2630 c3        1 WHW     -0.170700
     17 C14         0.6120   -1.2730   11.8850 c3        1 WHW     -0.031200
     18 C15        -0.1960   -1.5830   13.0880 c2        1 WHW     -0.176200
     19 C16        -0.5240   -2.8180   13.4810 c2        1 WHW     -0.176200
     20 C17        -0.1490   -4.0570   12.7590 c3        1 WHW     -0.051200
     21 C18        -0.5400   -5.3030   13.5140 c3        1 WHW     -0.090100
     22 H2         -1.5180    0.6360    1.3400 hc        1 WHW      0.019200
     23 H2A        -1.3370   -1.1630    1.2960 hc        1 WHW      0.019200
     24 H3          0.8620   -1.0170    2.4230 hc        1 WHW      0.044200
     25 H3A         0.8350    0.7850    2.3090 hc        1 WHW      0.044200
     26 H4         -1.2070    0.8410    3.7890 hc        1 WHW      0.026700
     27 H4A        -1.1960   -0.9620    3.8810 hc        1 WHW      0.026700
     28 H5          1.1030   -0.8970    4.9020 hc        1 WHW      0.036700
     29 H5A         1.0960    0.9050    4.8050 hc        1 WHW      0.036700
     30 H6         -0.9500    0.9740    6.2750 hc        1 WHW      0.036700
     31 H6A        -0.9390   -0.8280    6.3730 hc        1 WHW      0.036700
     32 H7          1.3520    1.0480    7.2850 hc        1 WHW      0.038200
     33 H7A         1.3710   -0.7550    7.3780 hc        1 WHW      0.038200
     34 H8         -0.7000    1.0930    8.7600 hc        1 WHW      0.047200
     35 H8A        -0.6590   -0.7120    8.8530 hc        1 WHW      0.047200
     36 H9          1.7440   -0.5180    9.7610 hc        1 WHW      0.071700
     37 H10         2.1580    2.0380    9.1730 ha        1 WHW      0.152000
     38 H11         1.8650    3.0960   11.6210 ha        1 WHW      0.157000
     39 H13        -0.8740    0.1070   11.1250 hc        1 WHW      0.086700
     40 H14         0.4770   -2.0750   11.1080 hc        1 WHW      0.052200
     41 H14A        1.7000   -1.2670   12.1700 hc        1 WHW      0.052200
     42 H15        -0.5080   -0.7030   13.6800 ha        1 WHW      0.146000
     43 H16        -1.1160   -2.9620   14.4000 ha        1 WHW      0.120000
     44 H17        -0.6440   -4.0620   11.7490 hc        1 WHW      0.046700
     45 H17A        0.9610   -4.0640   12.5760 hc        1 WHW      0.046700
     46 H18        -1.6450   -5.3370   13.6750 hc        1 WHW      0.032033
     47 H18A       -0.2390   -6.2120   12.9390 hc        1 WHW      0.032033
     48 H18B       -0.0390   -5.3340   14.5120 hc        1 WHW      0.032033
@<TRIPOS>BOND
     1    1    2 1   
     2    1    3 1   
     3    1    4 1   
     4    3    5 1   
     5    3   22 1   
     6    3   23 1   
     7    5    7 1   
     8    5   24 1   
     9    5   25 1   
    10    6   15 2   
    11    7    8 1   
    12    7   26 1   
    13    7   27 1   
    14    8    9 1   
    15    8   28 1   
    16    8   29 1   
    17    9   10 1   
    18    9   30 1   
    19    9   31 1   
    20   10   11 1   
    21   10   32 1   
    22   10   33 1   
    23   11   12 1   
    24   11   34 1   
    25   11   35 1   
    26   12   13 1   
    27   12   16 1   
    28   12   36 1   
    29   13   14 2   
    30   13   37 1   
    31   14   15 1   
    32   14   38 1   
    33   15   16 1   
    34   16   17 1   
    35   16   39 1   
    36   17   18 1   
    37   17   40 1   
    38   17   41 1   
    39   18   19 2   
    40   18   42 1   
    41   19   20 1   
    42   19   43 1   
    43   20   21 1   
    44   20   44 1   
    45   20   45 1   
    46   21   46 1   
    47   21   47 1   
    48   21   48 1   
@<TRIPOS>SUBSTRUCTURE
     1 WHW         1 TEMP              0 ****  ****    0 ROOT
