@<TRIPOS>MOLECULE
molecule
   48    48     1     0     0
SMALL
bcc


@<TRIPOS>ATOM
      1 C1           0.0000     0.0000     0.0000 c          1 WHW       0.890600
      2 O1           1.2090     0.0000     0.0000 o          1 WHW      -0.857800
      3 C2          -0.7540     0.0000     1.3050 c3         1 WHW      -0.182400
      4 O2          -0.6710     0.0060    -1.1630 o          1 WHW      -0.857800
      5 C3           0.2390    -0.0060     2.4680 c3         1 WHW      -0.063400
      6 O3           0.1830     1.4870    13.1040 o          1 WHW      -0.484100
      7 C4          -0.5260    -0.0060     3.7920 c3         1 WHW      -0.088400
      8 C5           0.4670    -0.0130     4.9560 c3         1 WHW      -0.081400
      9 C6          -0.2980    -0.0120     6.2800 c3         1 WHW      -0.083400
     10 C7           0.6950    -0.0190     7.4440 c3         1 WHW      -0.083400
     11 C8          -0.0700    -0.0180     8.7680 c3         1 WHW      -0.068400
     12 C9           0.9230    -0.0250     9.9310 c3         1 WHW      -0.065500
     13 C10          1.6780     1.2800     9.9810 c2         1 WHW      -0.097200
     14 C11          1.4550     1.9030    11.1290 ce         1 WHW      -0.272200
     15 C12          0.5550     1.1530    12.0000 c          1 WHW       0.566300
     16 C13          0.1740    -0.1210    11.2720 c3         1 WHW      -0.139700
     17 C14          0.6360    -1.3490    12.0580 c3         1 WHW      -0.090200
     18 C15         -0.1980    -1.4890    13.3060 c2         1 WHW      -0.440200
     19 C16         -0.7900    -2.6260    13.5740 c2         1 WHW      -0.028200
     20 C17         -0.5060    -3.8410    12.7290 c3         1 WHW      -0.128200
     21 C18         -0.0740    -4.9990    13.6300 c3         1 WHW      -0.083100
     22 H2          -1.3800    -0.8820     1.3600 hc         1 WHW       0.027200
     23 H2A         -1.3740     0.8870     1.3640 hc         1 WHW       0.027200
     24 H3           0.8590    -0.8930     2.4090 hc         1 WHW       0.045200
     25 H3A          0.8660     0.8760     2.4130 hc         1 WHW       0.045200
     26 H4          -1.1530    -0.8890     3.8470 hc         1 WHW       0.029200
     27 H4A         -1.1460     0.8800     3.8510 hc         1 WHW       0.029200
     28 H5           1.0860    -0.9000     4.8980 hc         1 WHW       0.038200
     29 H5A          1.0940     0.8690     4.9010 hc         1 WHW       0.038200
     30 H6          -0.9260    -0.8930     6.3350 hc         1 WHW       0.038200
     31 H6A         -0.9170     0.8760     6.3390 hc         1 WHW       0.038200
     32 H7           1.3220     0.8630     7.3890 hc         1 WHW       0.040200
     33 H7A          1.3140    -0.9060     7.3850 hc         1 WHW       0.040200
     34 H8          -0.6980    -0.9000     8.8230 hc         1 WHW       0.047200
     35 H8A         -0.6890     0.8690     8.8270 hc         1 WHW       0.047200
     36 H9           1.6160    -0.8520     9.8330 hc         1 WHW       0.060700
     37 H10          2.6430     1.3660     9.4960 ha         1 WHW       0.147000
     38 H11          1.8910     2.8590    11.3920 ha         1 WHW       0.151000
     39 H13         -0.8960    -0.1510    11.1040 hc         1 WHW       0.095700
     40 H14          0.5200    -2.2350    11.4450 hc         1 WHW       0.037200
     41 H14A         1.6780    -1.2320    12.3310 hc         1 WHW       0.037200
     42 H15          0.8370    -1.8090    13.2870 ha         1 WHW       0.317000
     43 H16         -1.3890    -2.7240    14.4720 ha         1 WHW       0.139000
     44 H17          0.2870    -3.6150    12.0270 hc         1 WHW       0.056200
     45 H17A        -1.4010    -4.1210    12.1860 hc         1 WHW       0.056200
     46 H18          0.1820    -5.8560    13.0180 hc         1 WHW       0.036367
     47 H18A         0.7890    -4.7010    14.2130 hc         1 WHW       0.036367
     48 H18B        -0.8870    -5.2610    14.2960 hc         1 WHW       0.036367
@<TRIPOS>BOND
     1     2     1 1
     2     3     1 1
     3     1     4 1
     4    22     3 1
     5     3     5 1
     6     3    23 1
     7    24     5 1
     8     5     7 1
     9     5    25 1
    10    15     6 2
    11    27     7 1
    12    26     7 1
    13     7     8 1
    14     8    28 1
    15     8    29 1
    16     8     9 1
    17    31     9 1
    18    30     9 1
    19     9    10 1
    20    10    33 1
    21    10    32 1
    22    10    11 1
    23    34    11 1
    24    35    11 1
    25    11    12 1
    26    12    36 1
    27    12    16 1
    28    12    13 1
    29    13    37 1
    30    13    14 2
    31    15    14 1
    32    14    38 1
    33    16    15 1
    34    39    16 1
    35    16    17 1
    36    41    17 1
    37    18    17 1
    38    17    40 1
    39    42    18 1
    40    18    19 2
    41    43    19 1
    42    19    20 1
    43    44    20 1
    44    20    45 1
    45    20    21 1
    46    48    21 1
    47    21    47 1
    48    21    46 1
@<TRIPOS>SUBSTRUCTURE
     1 WHW         1 TEMP              0 ****  ****    0 ROOT
