@<TRIPOS>MOLECULE
WI2
   43    45     1     0     0
SMALL
bcc


@<TRIPOS>ATOM
      1 CAL          0.0000     0.0000     0.0000 c3         1 WI2       0.145800
      2 CAJ          1.5310     0.0000     0.0000 c3         1 WI2      -0.008900
      3 CAW          2.0360     0.0000     1.4450 c3         1 WI2      -0.155700
      4 CAQ          3.5420     0.0610     1.4520 c          1 WI2       0.984600
      5 OAD          4.1500     0.1010     0.4090 o          1 WI2      -0.899300
      6 OAC          4.2080     0.0710     2.6180 o          1 WI2      -0.899300
      7 CAK          1.4710     1.2210     2.1760 c3         1 WI2      -0.008900
      8 CAM         -0.0570     1.1850     2.1130 c3         1 WI2       0.145800
      9 NAX         -0.4910     1.1880     0.7100 nh         1 WI2      -0.507300
     10 CAV         -1.8760     1.2870     0.6170 ca         1 WI2       0.391900
     11 NAO         -2.6450     0.3400     1.1250 nb         1 WI2      -0.565000
     12 CAR         -2.4600     2.3970    -0.0140 ca         1 WI2       0.402900
     13 NAB         -1.6550     3.3990    -0.5450 nv         1 WI2      -0.630500
     14 NAN         -3.7790     2.4900    -0.1010 nb         1 WI2      -0.574000
     15 CAH         -4.5450     1.5370     0.4030 ca         1 WI2       0.277900
     16 CAU         -3.9710     0.4380     1.0320 cp         1 WI2       0.312500
     17 CAT         -4.8340    -0.6240     1.6020 cp         1 WI2      -0.100500
     18 CAI         -6.2140    -0.5770     1.4180 ca         1 WI2      -0.142000
     19 CAG         -4.2670    -1.6770     2.3200 ca         1 WI2      -0.106000
     20 CAE         -5.0730    -2.6650     2.8490 ca         1 WI2      -0.064000
     21 CAF         -6.4420    -2.6140     2.6700 ca         1 WI2      -0.211000
     22 CAS         -7.0150    -1.5730     1.9520 ca         1 WI2       0.140100
     23 OAP         -8.3620    -1.5290     1.7740 os         1 WI2      -0.311900
     24 CAA         -9.1270    -2.5890     2.3530 c3         1 WI2       0.244700
     25 HAL1        -0.3600     0.0180    -1.0220 h1         1 WI2       0.001200
     26 HAL2        -0.3600    -0.8920     0.4990 h1         1 WI2       0.001200
     27 HAJ1         1.8910    -0.8860    -0.5080 hc         1 WI2       0.027950
     28 HAJ2         1.8910     0.8860    -0.5080 hc         1 WI2       0.027950
     29 HAW          1.7040    -0.9030     1.9430 hc         1 WI2       0.018700
     30 HAK1         1.8300     2.1250     1.6990 hc         1 WI2       0.027950
     31 HAK2         1.7890     1.2010     3.2110 hc         1 WI2       0.027950
     32 HAM1        -0.4160     0.2850     2.5980 h1         1 WI2       0.001200
     33 HAM2        -0.4580     2.0570     2.6150 h1         1 WI2       0.001200
     34 HAB1        -1.4110     4.1930     0.0130 hn         1 WI2       0.276800
     35 HAB2        -1.3630     3.3510    -1.5010 hn         1 WI2       0.276800
     36 HAH         -5.6230     1.6150     0.3300 h4         1 WI2      -0.010900
     37 HAI         -6.6600     0.2360     0.8570 ha         1 WI2       0.122000
     38 HAG         -3.1940    -1.7190     2.4620 ha         1 WI2       0.135000
     39 HAE         -4.6310    -3.4800     3.4080 ha         1 WI2       0.101000
     40 HAF         -7.0710    -3.3920     3.0870 ha         1 WI2       0.114000
     41 HAA1        -8.8080    -3.5350     1.9330 h1         1 WI2      -0.005633
     42 HAA2        -8.9750    -2.6000     3.4250 h1         1 WI2      -0.005633
     43 HAA3       -10.1770    -2.4350     2.1380 h1         1 WI2      -0.005633
@<TRIPOS>BOND
     1     1     2 1   
     2     1     9 1   
     3     1    25 1   
     4     1    26 1   
     5     2     3 1   
     6     2    27 1   
     7     2    28 1   
     8     3     4 1   
     9     3     7 1   
    10     3    29 1   
    11     4     5 1   
    12     4     6 1   
    13     7     8 1   
    14     7    30 1   
    15     7    31 1   
    16     8     9 1   
    17     8    32 1   
    18     8    33 1   
    19     9    10 1   
    20    10    11 ar  
    21    10    12 ar  
    22    11    16 ar  
    23    12    13 1   
    24    12    14 ar  
    25    13    34 1   
    26    13    35 1   
    27    14    15 ar  
    28    15    16 ar  
    29    15    36 1   
    30    16    17 1   
    31    17    18 ar  
    32    17    19 ar  
    33    18    22 ar  
    34    18    37 1   
    35    19    20 ar  
    36    19    38 1   
    37    20    21 ar  
    38    20    39 1   
    39    21    22 ar  
    40    21    40 1   
    41    22    23 1   
    42    23    24 1   
    43    24    41 1   
    44    24    42 1   
    45    24    43 1   
@<TRIPOS>SUBSTRUCTURE
     1 WI2         1 TEMP              0 ****  ****    0 ROOT
