@<TRIPOS>MOLECULE
WI3
   18    18     1     0     0
SMALL
bcc


@<TRIPOS>ATOM
      1 N5         -0.0810    0.0710    0.1060 nh        1 WI3     -0.945500
      2 C2          1.3000    0.0040    0.0630 ca        1 WI3      0.914900
      3 N1          1.9940   -0.0030    1.2740 nb        1 WI3     -0.800000
      4 C3          3.3530    0.0020    1.1610 ca        1 WI3      0.714300
      5 C8          4.1610    0.0030    2.4370 c3        1 WI3     -0.140400
      6 N4          1.9180   -0.0120   -1.1860 nb        1 WI3     -0.820000
      7 C4          3.2820   -0.0060   -1.1530 ca        1 WI3      0.774300
      8 N3          4.0530    0.0040   -0.0180 nb        1 WI3     -0.762000
      9 S1          4.1580   -0.0140   -2.6330 ss        1 WI3     -0.175400
     10 C6          2.9500   -0.0100   -3.8960 c3        1 WI3     -0.074000
     11 H51N       -0.5370   -0.0650    0.9760 hn        1 WI3      0.443300
     12 H52N       -0.5930   -0.0770   -0.7280 hn        1 WI3      0.443300
     13 H81C        3.5000   -0.0200    3.3370 hc        1 WI3      0.066033
     14 H82C        4.8300   -0.8910    2.4540 hc        1 WI3      0.066033
     15 H83C        4.7900    0.9260    2.4730 hc        1 WI3      0.066033
     16 H61C        3.5360   -0.0060   -4.8460 h1        1 WI3      0.076700
     17 H62C        2.2990   -0.9120   -3.8730 h1        1 WI3      0.076700
     18 H63C        2.2970    0.8910   -3.8650 h1        1 WI3      0.076700
@<TRIPOS>BOND
     1    1    2 1   
     2    1   11 1   
     3    1   12 1   
     4    2    3 ar  
     5    2    6 ar  
     6    3    4 ar  
     7    4    5 1   
     8    4    8 ar  
     9    5   13 1   
    10    5   14 1   
    11    5   15 1   
    12    6    7 ar  
    13    7    8 ar  
    14    7    9 1   
    15    9   10 1   
    16   10   16 1   
    17   10   17 1   
    18   10   18 1   
@<TRIPOS>SUBSTRUCTURE
     1 WI3         1 TEMP              0 ****  ****    0 ROOT
