@<TRIPOS>MOLECULE
WI4
   29    31     1     0     0
SMALL
bcc


@<TRIPOS>ATOM
      1 Cl           0.0000     0.0000     0.0000 cl         1 WI4      -0.021400
      2 CAJ          1.7360     0.0000     0.0000 ca         1 WI4      -0.067600
      3 CAI          2.4280     0.0000     1.1980 ca         1 WI4      -0.078000
      4 CAA          3.8100     0.0000     1.1980 ca         1 WI4      -0.104000
      5 CAB          4.5060     0.0010     0.0020 ca         1 WI4      -0.077000
      6 CAC          3.8210     0.0020    -1.1970 ca         1 WI4      -0.103000
      7 CAK          2.4330    -0.0040    -1.2020 ca         1 WI4      -0.006400
      8 NAL          1.7360    -0.0100    -2.4160 nu         1 WI4      -0.256300
      9 CAM          2.3000     0.5640    -3.5390 ca         1 WI4       0.751900
     10 NAN          1.6970     0.4530    -4.7170 nb         1 WI4      -0.753000
     11 NAD          3.4460     1.2350    -3.4390 nb         1 WI4      -0.758000
     12 CAE          3.9850     1.7840    -4.5130 ca         1 WI4       0.737900
     13 NAF          3.3890     1.6700    -5.6880 nb         1 WI4      -0.747000
     14 CAO          2.2430     1.0060    -5.7920 ca         1 WI4       0.614500
     15 NAP          1.6170     0.8870    -7.0300 na         1 WI4       0.444100
     16 CAQ          2.0780     1.4040    -8.2100 cc         1 WI4      -0.304800
     17 CAR          1.2010     1.0800    -9.1800 cd         1 WI4      -0.159500
     18 CAH          0.1620     0.3370    -8.5840 cd         1 WI4      -0.159500
     19 CAG          0.4440     0.2270    -7.2700 cc         1 WI4      -0.304800
     20 HAI          1.8860    -0.0010     2.1360 ha         1 WI4       0.116000
     21 HAA          4.3500    -0.0000     2.1380 ha         1 WI4       0.107000
     22 HAB          5.5890     0.0040     0.0070 ha         1 WI4       0.106000
     23 HAC          4.3670     0.0010    -2.1330 ha         1 WI4       0.144000
     24 HAE          4.9190     2.3280    -4.4310 h5         1 WI4       0.005100
     25 HAQ          2.9890     1.9750    -8.3410 h4         1 WI4       0.159000
     26 HAG         -0.1590    -0.2870    -6.5320 h4         1 WI4       0.159000
     27 HAR          1.2790     1.3450   -10.2270 ha         1 WI4       0.126000
     28 HAH         -0.7020    -0.0770    -9.0900 ha         1 WI4       0.126000
     29 H10          0.8440    -0.4600    -2.4790 hn         1 WI4       0.302800
@<TRIPOS>BOND
     1     1     2 1   
     2     2     3 ar  
     3     2     7 ar  
     4     3     4 ar  
     5     3    20 1   
     6     4     5 ar  
     7     4    21 1   
     8     5     6 ar  
     9     5    22 1   
    10     6     7 ar  
    11     6    23 1   
    12     7     8 1   
    13     8     9 1   
    14     8    29 1   
    15     9    10 ar  
    16     9    11 ar  
    17    10    14 ar  
    18    11    12 ar  
    19    12    13 ar  
    20    12    24 1   
    21    13    14 ar  
    22    14    15 1   
    23    15    16 1   
    24    15    19 1   
    25    16    17 2   
    26    16    25 1   
    27    17    18 1   
    28    17    27 1   
    29    18    19 2   
    30    18    28 1   
    31    19    26 1   
@<TRIPOS>SUBSTRUCTURE
     1 WI4         1 TEMP              0 ****  ****    0 ROOT
