@<TRIPOS>MOLECULE
molecule
   29    31     1     0     0
SMALL
bcc


@<TRIPOS>ATOM
      1 Cl           0.0000     0.0000     0.0000 cl         1 WI4      -0.108400
      2 CAJ          1.7360     0.0000     0.0000 ca         1 WI4      -0.007600
      3 CAI          2.4280     0.0000     1.1980 ca         1 WI4      -0.102000
      4 CAA          3.8100     0.0000     1.1980 ca         1 WI4      -0.138000
      5 CAB          4.5060     0.0010     0.0020 ca         1 WI4      -0.109000
      6 CAC          3.8210     0.0020    -1.1970 ca         1 WI4      -0.121000
      7 CAK          2.4330    -0.0040    -1.2020 ca         1 WI4       0.162600
      8 NAL          1.7360    -0.0100    -2.4160 nu         1 WI4      -0.736300
      9 CAM          2.3000     0.5640    -3.5390 ca         1 WI4       0.989900
     10 NAN          1.6970     0.4530    -4.7170 nb         1 WI4      -0.863000
     11 NAD          3.4460     1.2350    -3.4390 nb         1 WI4      -0.854000
     12 CAE          3.9850     1.7840    -4.5130 ca         1 WI4       0.773900
     13 NAF          3.3890     1.6700    -5.6880 nb         1 WI4      -0.846000
     14 CAO          2.2430     1.0060    -5.7920 ca         1 WI4       0.862500
     15 NAP          1.6170     0.8870    -7.0300 na         1 WI4      -0.077900
     16 CAQ          2.0780     1.4040    -8.2100 cc         1 WI4      -0.126300
     17 CAR          1.2010     1.0800    -9.1800 cd         1 WI4      -0.196500
     18 CAH          0.1620     0.3370    -8.5840 cd         1 WI4      -0.196500
     19 CAG          0.4440     0.2270    -7.2700 cc         1 WI4      -0.126300
     20 HAI          1.8860    -0.0010     2.1360 ha         1 WI4       0.147000
     21 HAA          4.3500    -0.0000     2.1380 ha         1 WI4       0.138000
     22 HAB          5.5890     0.0040     0.0070 ha         1 WI4       0.138000
     23 HAC          4.3670     0.0010    -2.1330 ha         1 WI4       0.169000
     24 HAE          4.9190     2.3280    -4.4310 h5         1 WI4       0.071100
     25 HAQ          2.9890     1.9750    -8.3410 h4         1 WI4       0.184000
     26 HAG         -0.1590    -0.2870    -6.5320 h4         1 WI4       0.184000
     27 HAR          1.2790     1.3450   -10.2270 ha         1 WI4       0.154000
     28 HAH         -0.7020    -0.0770    -9.0900 ha         1 WI4       0.154000
     29 H10          0.8440    -0.4600    -2.4790 hn         1 WI4       0.479800
@<TRIPOS>BOND
     1     1     2 1
     2     2     3 ar
     3     2     7 ar
     4     3     4 ar
     5     3    20 1
     6     4     5 ar
     7     4    21 1
     8     5     6 ar
     9     5    22 1
    10     6     7 ar
    11     6    23 1
    12     7     8 1
    13     8     9 1
    14     9    10 ar
    15     9    11 ar
    16    14    10 ar
    17    11    12 ar
    18    12    13 ar
    19    12    24 1
    20    13    14 ar
    21    14    15 1
    22    15    16 1
    23    15    19 1
    24    16    17 2
    25    16    25 1
    26    17    18 1
    27    17    27 1
    28    18    19 2
    29    18    28 1
    30    19    26 1
    31     8    29 1
@<TRIPOS>SUBSTRUCTURE
     1 WI4         1 TEMP              0 ****  ****    0 ROOT
