@<TRIPOS>MOLECULE
WIA
   25    25     1     0     0
SMALL
bcc


@<TRIPOS>ATOM
      1 C1          0.0540   -0.0350    0.0520 c3        1 WIA      0.306900
      2 CM         -1.5510    0.1590   -1.6910 c3        1 WIA      0.121700
      3 O1         -0.1780    0.1930   -1.3200 os        1 WIA     -0.418600
      4 C2          1.5810   -0.0630    0.2480 c3        1 WIA      0.086100
      5 O2          2.1350   -1.2490   -0.2880 oh        1 WIA     -0.605800
      6 C3          1.8870   -0.0670    1.7530 c3        1 WIA      0.112100
      7 O3          3.2790    0.0660    1.9850 oh        1 WIA     -0.606800
      8 C4          1.2160    1.1450    2.4240 c3        1 WIA      0.124100
      9 O4          1.7880    2.3650    1.9900 oh        1 WIA     -0.591800
     10 C5         -0.2870    1.1650    2.0790 c3        1 WIA      0.089100
     11 O5         -0.5290    1.1070    0.6710 os        1 WIA     -0.426600
     12 C6         -0.9120    2.4480    2.5550 c         1 WIA      0.224200
     13 S1         -1.7640    2.5990    3.8050 s         1 WIA     -0.226400
     14 H1         -0.4400   -0.9790    0.4140 h2        1 WIA      0.050700
     15 HMC1       -1.5350    0.3340   -2.7960 h1        1 WIA      0.043700
     16 HMC2       -1.9930   -0.8400   -1.4530 h1        1 WIA      0.043700
     17 HMC3       -2.1170    0.9680   -1.1700 h1        1 WIA      0.043700
     18 H2          2.0400    0.8440   -0.2360 h1        1 WIA      0.086700
     19 HA          1.9350   -1.2410   -1.2340 ho        1 WIA      0.427000
     20 H3          1.5170   -1.0230    2.2160 h1        1 WIA      0.060700
     21 HB          3.7160   -0.6050    1.4420 ho        1 WIA      0.432000
     22 H4          1.3380    1.0550    3.5400 h1        1 WIA      0.064700
     23 HC          2.7480    2.2640    2.0600 ho        1 WIA      0.428000
     24 H5         -0.7670    0.2680    2.5670 h1        1 WIA      0.066700
     25 H6         -0.6480    3.2760    1.8630 h4        1 WIA      0.065200
@<TRIPOS>BOND
     1    1    3 1   
     2    1    4 1   
     3    1   11 1   
     4    1   14 1   
     5    2    3 1   
     6    2   15 1   
     7    2   16 1   
     8    2   17 1   
     9    4    5 1   
    10    4    6 1   
    11    4   18 1   
    12    5   19 1   
    13    6    7 1   
    14    6    8 1   
    15    6   20 1   
    16    7   21 1   
    17    8    9 1   
    18    8   10 1   
    19    8   22 1   
    20    9   23 1   
    21   10   11 1   
    22   10   12 1   
    23   10   24 1   
    24   12   13 2   
    25   12   25 1   
@<TRIPOS>SUBSTRUCTURE
     1 WIA         1 TEMP              0 ****  ****    0 ROOT
