@<TRIPOS>MOLECULE
molecule
   25    25     1     0     0
SMALL
bcc


@<TRIPOS>ATOM
      1 C1           0.0000     0.0000     0.0000 c3         1 WIA       0.313900
      2 CM          -1.9040    -0.0360    -1.2810 c3         1 WIA       0.113700
      3 O1          -0.4760    -0.0340    -1.3460 os         1 WIA      -0.378600
      4 C2           1.5300     0.0000     0.0000 c3         1 WIA       0.123100
      5 O2           2.0080    -1.1670    -0.6720 oh         1 WIA      -0.598800
      6 C3           2.0300     0.0000     1.4470 c3         1 WIA       0.124100
      7 O3           3.4510     0.1490     1.4680 oh         1 WIA      -0.587800
      8 C4           1.3790     1.1720     2.1900 c3         1 WIA       0.112100
      9 O4           1.8480     2.4050     1.6440 oh         1 WIA      -0.569800
     10 C5          -0.1400     1.0830     2.0250 c3         1 WIA       0.079100
     11 O5          -0.4820     1.1760     0.6440 os         1 WIA      -0.380600
     12 C6          -0.7900     2.2140     2.7790 cs         1 WIA       0.230200
     13 S1          -1.6990     3.2760     2.0030 s          1 WIA      -0.241400
     14 H1          -0.3570    -0.8720     0.5340 h2         1 WIA       0.032700
     15 HMC1        -2.2550     0.9540    -1.0180 h1         1 WIA       0.038700
     16 HMC2        -2.2300    -0.7460    -0.5300 h1         1 WIA       0.038700
     17 HMC3        -2.3090    -0.3190    -2.2450 h1         1 WIA       0.038700
     18 H2           1.8900     0.8880    -0.5060 h1         1 WIA       0.088700
     19 HA           2.5820    -0.9120    -1.3760 ho         1 WIA       0.418000
     20 H3           1.7510    -0.9310     1.9260 h1         1 WIA       0.046700
     21 HB           3.8330    -0.5530     1.9680 ho         1 WIA       0.406000
     22 H4           1.6310     1.1170     3.2420 h1         1 WIA       0.041700
     23 HC           2.3430     2.8700     2.2990 ho         1 WIA       0.407000
     24 H5          -0.4880     0.1350     2.4170 h1         1 WIA       0.059700
     25 H6          -0.6600     2.2950     3.8520 h4         1 WIA       0.042200
@<TRIPOS>BOND
     1     1     3 1
     2     1     4 1
     3     1    11 1
     4     1    14 1
     5     2     3 1
     6     2    15 1
     7     2    16 1
     8     2    17 1
     9     4     5 1
    10     4     6 1
    11     4    18 1
    12     5    19 1
    13     6     7 1
    14     6     8 1
    15     6    20 1
    16     7    21 1
    17     8     9 1
    18     8    10 1
    19     8    22 1
    20     9    23 1
    21    10    11 1
    22    10    12 1
    23    10    24 1
    24    12    13 2
    25    12    25 1
@<TRIPOS>SUBSTRUCTURE
     1 WIA         1 TEMP              0 ****  ****    0 ROOT
