@<TRIPOS>MOLECULE
molecule
   20    20     1     0     0
SMALL
bcc


@<TRIPOS>ATOM
      1 O2           0.0000     0.0000     0.0000 o          1 WJ1      -0.827300
      2 C9           1.3420     0.0000     0.0000 c          1 WJ1       0.888600
      3 O1           1.9460    -0.0000    -1.0470 o          1 WJ1      -0.827300
      4 C8           2.0960     0.0000     1.3040 c3         1 WJ1      -0.013300
      5 Cl1          2.7770    -1.6410     1.6050 cl         1 WJ1      -0.257400
      6 C7           3.2340     1.0200     1.2360 c3         1 WJ1      -0.038100
      7 C6           3.9100     1.1090     2.5800 ca         1 WJ1      -0.063300
      8 C1           4.9790     0.2830     2.8720 ca         1 WJ1      -0.120500
      9 C5           3.4650     2.0210     3.5190 ca         1 WJ1      -0.120500
     10 C4           4.0860     2.1030     4.7510 ca         1 WJ1      -0.138500
     11 C3           5.1510     1.2720     5.0460 ca         1 WJ1      -0.151000
     12 C2           5.5990     0.3640     4.1040 ca         1 WJ1      -0.138500
     13 H2           1.4220     0.2640     2.1110 h1         1 WJ1       0.065700
     14 H3           2.8340     1.9910     0.9680 hc         1 WJ1       0.065700
     15 H4           3.9550     0.7080     0.4900 hc         1 WJ1       0.065700
     16 H5           5.3300    -0.4290     2.1350 ha         1 WJ1       0.136000
     17 H6           2.6310     2.6730     3.2890 ha         1 WJ1       0.136000
     18 H7           3.7370     2.8160     5.4870 ha         1 WJ1       0.114000
     19 H8           5.6380     1.3360     6.0120 ha         1 WJ1       0.110000
     20 H9           6.4350    -0.2860     4.3340 ha         1 WJ1       0.114000
@<TRIPOS>BOND
     1     3     2 1
     2     1     2 1
     3     2     4 1
     4     5     4 1
     5     4     6 1
     6     6     7 1
     7     7     8 ar
     8     7     9 ar
     9     8    12 ar
    10     9    10 ar
    11    12    11 ar
    12    10    11 ar
    13     4    13 1
    14     6    14 1
    15     6    15 1
    16     8    16 1
    17     9    17 1
    18    10    18 1
    19    11    19 1
    20    12    20 1
@<TRIPOS>SUBSTRUCTURE
     1 WJ1         1 TEMP              0 ****  ****    0 ROOT
