@<TRIPOS>MOLECULE
WJ1
   20    20     1     0     0
SMALL
bcc


@<TRIPOS>ATOM
      1 O2          0.0070    0.4220   -0.0040 o         1 WJ1     -0.820800
      2 C9          1.2480    0.2130   -0.0660 c         1 WJ1      0.919600
      3 O1          1.9290    0.1600   -1.1230 o         1 WJ1     -0.820800
      4 C8          1.9900    0.0680    1.2950 c3        1 WJ1     -0.042300
      5 CL1         2.2350   -1.6520    1.6870 cl        1 WJ1     -0.262400
      6 C7          3.3140    0.8010    1.2450 c3        1 WJ1     -0.046100
      7 C6          3.9590    0.9760    2.5740 ca        1 WJ1     -0.046300
      8 C1          5.1770    0.3490    2.8660 ca        1 WJ1     -0.129000
      9 C5          3.3640    1.7890    3.5480 ca        1 WJ1     -0.129000
     10 C4          3.9760    1.9740    4.7860 ca        1 WJ1     -0.138000
     11 C3          5.1910    1.3490    5.0670 ca        1 WJ1     -0.155000
     12 C2          5.7880    0.5350    4.1050 ca        1 WJ1     -0.138000
     13 H2          1.3410    0.4510    2.1190 h1        1 WJ1      0.054700
     14 H3          3.1130    1.8160    0.8000 hc        1 WJ1      0.070700
     15 H4          3.9980    0.2670    0.5320 hc        1 WJ1      0.070700
     16 H5          5.6450   -0.3010    2.1120 ha        1 WJ1      0.136000
     17 H6          2.4020    2.2760    3.3270 ha        1 WJ1      0.136000
     18 H7          3.4990    2.6110    5.5430 ha        1 WJ1      0.114500
     19 H8          5.6730    1.4940    6.0430 ha        1 WJ1      0.112000
     20 H9          6.7430    0.0350    4.3240 ha        1 WJ1      0.114500
@<TRIPOS>BOND
     1    1    2 1   
     2    2    3 1   
     3    2    4 1   
     4    4    5 1   
     5    4    6 1   
     6    4   13 1   
     7    6    7 1   
     8    6   14 1   
     9    6   15 1   
    10    7    8 ar  
    11    7    9 ar  
    12    8   12 ar  
    13    8   16 1   
    14    9   10 ar  
    15    9   17 1   
    16   10   11 ar  
    17   10   18 1   
    18   11   12 ar  
    19   11   19 1   
    20   12   20 1   
@<TRIPOS>SUBSTRUCTURE
     1 WJ1         1 TEMP              0 ****  ****    0 ROOT
