@<TRIPOS>MOLECULE
WJ2
   20    20     1     0     0
SMALL
bcc


@<TRIPOS>ATOM
      1 CL1         0.1830    0.4860    0.1590 cl        1 WJ2     -0.262400
      2 C02         1.9100    0.0710    0.0280 c3        1 WJ2     -0.042300
      3 C03         2.5590    0.0030    1.4410 c         1 WJ2      0.919600
      4 O04         3.2030    1.0220    1.8080 o         1 WJ2     -0.820800
      5 O05         2.4430   -1.0650    2.0990 o         1 WJ2     -0.820800
      6 C06         2.0920   -1.2490   -0.6910 c3        1 WJ2     -0.046100
      7 C07         1.7750   -1.1960   -2.1430 ca        1 WJ2     -0.046300
      8 C08         0.6980   -1.9210   -2.6680 ca        1 WJ2     -0.129000
      9 C09         0.4200   -1.8850   -4.0340 ca        1 WJ2     -0.138000
     10 C10         1.2140   -1.1250   -4.8910 ca        1 WJ2     -0.155000
     11 C11         2.2860   -0.3970   -4.3770 ca        1 WJ2     -0.138000
     12 C12         2.5660   -0.4310   -3.0130 ca        1 WJ2     -0.129000
     13 H1          2.3550    0.9160   -0.5500 h1        1 WJ2      0.054700
     14 H3          3.1700   -1.5500   -0.5630 hc        1 WJ2      0.070700
     15 H4          1.4760   -2.0320   -0.1730 hc        1 WJ2      0.070700
     16 H5          0.0640   -2.5130   -1.9920 ha        1 WJ2      0.136000
     17 H6         -0.4300   -2.4550   -4.4340 ha        1 WJ2      0.114500
     18 H7          0.9940   -1.0970   -5.9670 ha        1 WJ2      0.112000
     19 H8          2.9120    0.2080   -5.0480 ha        1 WJ2      0.114500
     20 H9          3.4080    0.1480   -2.6040 ha        1 WJ2      0.136000
@<TRIPOS>BOND
     1    1    2 1   
     2    2    3 1   
     3    2    6 1   
     4    2   13 1   
     5    3    4 1   
     6    3    5 1   
     7    6    7 1   
     8    6   14 1   
     9    6   15 1   
    10    7    8 ar  
    11    7   12 ar  
    12    8    9 ar  
    13    8   16 1   
    14    9   10 ar  
    15    9   17 1   
    16   10   11 ar  
    17   10   18 1   
    18   11   12 ar  
    19   11   19 1   
    20   12   20 1   
@<TRIPOS>SUBSTRUCTURE
     1 WJ2         1 TEMP              0 ****  ****    0 ROOT
