@<TRIPOS>MOLECULE
molecule
   20    20     1     0     0
SMALL
bcc


@<TRIPOS>ATOM
      1 Cl1          0.0000     0.0000     0.0000 cl         1 WJ2      -0.258400
      2 C02          1.8030     0.0000     0.0000 c3         1 WJ2      -0.013300
      3 C03          2.3060     0.0000     1.4210 c          1 WJ2       0.888600
      4 O04          2.8140     1.1230     1.9530 o          1 WJ2      -0.827300
      5 O05          2.2520    -1.0110     2.0810 o          1 WJ2      -0.827300
      6 C06          2.3130    -1.2500    -0.7210 c3         1 WJ2      -0.038100
      7 C07          1.9140    -1.1900    -2.1730 ca         1 WJ2      -0.064300
      8 C08          0.7060    -1.7240    -2.5810 ca         1 WJ2      -0.120500
      9 C09          0.3390    -1.6690    -3.9120 ca         1 WJ2      -0.138500
     10 C10          1.1820    -1.0800    -4.8360 ca         1 WJ2      -0.151000
     11 C11          2.3900    -0.5460    -4.4290 ca         1 WJ2      -0.138500
     12 C12          2.7540    -0.5970    -3.0970 ca         1 WJ2      -0.120500
     13 H1           2.1640     0.8840    -0.5110 h1         1 WJ2       0.066700
     14 H3           1.8810    -2.1320    -0.2640 hc         1 WJ2       0.065700
     15 H4           3.3930    -1.2960    -0.6450 hc         1 WJ2       0.065700
     16 H5           0.0460    -2.1850    -1.8560 ha         1 WJ2       0.136000
     17 H6          -0.6080    -2.0870    -4.2310 ha         1 WJ2       0.114000
     18 H7           0.8960    -1.0380    -5.8800 ha         1 WJ2       0.110000
     19 H8           3.0490    -0.0820    -5.1530 ha         1 WJ2       0.114000
     20 H9           3.7010    -0.1780    -2.7780 ha         1 WJ2       0.136000
@<TRIPOS>BOND
     1     5     3 1
     2     3     4 1
     3     3     2 1
     4     2     1 1
     5     2     6 1
     6     6     7 1
     7     7    12 ar
     8     7     8 ar
     9    12    11 ar
    10     8     9 ar
    11    11    10 ar
    12     9    10 ar
    13     2    13 1
    14     6    14 1
    15     6    15 1
    16     8    16 1
    17     9    17 1
    18    10    18 1
    19    11    19 1
    20    12    20 1
@<TRIPOS>SUBSTRUCTURE
     1 WJ2         1 TEMP              0 ****  ****    0 ROOT
