@<TRIPOS>MOLECULE
molecule
   18    17     1     0     0
SMALL
bcc


@<TRIPOS>ATOM
      1 C01          0.0000     0.0000     0.0000 c3         1 WJZ      -0.066100
      2 N01          3.1580     0.6690     1.7370 ns         1 WJZ      -0.539900
      3 O01          5.5420     1.6240     4.3810 o          1 WJZ      -0.845300
      4 S01          2.1350    -1.4810    -0.8550 sh         1 WJZ      -0.400900
      5 C02          1.5300     0.0000     0.0000 c3         1 WJZ      -0.025600
      6 O02          5.3590     2.0100     2.2130 o          1 WJZ      -0.845300
      7 C03          2.0330     0.0000     1.4210 c          1 WJZ       0.656100
      8 O03          1.4240    -0.6030     2.2800 o          1 WJZ      -0.632100
      9 C04          3.6470     0.6690     3.1190 c3         1 WJZ      -0.004000
     10 C05          4.9130     1.4840     3.2040 c          1 WJZ       0.884600
     11 H01         -0.3610    -0.9070     0.4690 hc         1 WJZ       0.044367
     12 H01A        -0.3610     0.8600     0.5520 hc         1 WJZ       0.044367
     13 H01B        -0.3610     0.0480    -1.0200 hc         1 WJZ       0.044367
     14 HN01         3.6630     1.1630     1.0280 hn         1 WJZ       0.331500
     15 HS01         2.7280    -1.1270    -1.9880 hs         1 WJZ       0.196800
     16 H02          1.8910     0.8840    -0.5110 h1         1 WJZ       0.061700
     17 H04          2.8950     1.1000     3.7690 h1         1 WJZ       0.047700
     18 H04A         3.8520    -0.3490     3.4300 h1         1 WJZ       0.047700
@<TRIPOS>BOND
     1     5     1 1
     2     1    11 1
     3     1    12 1
     4     1    13 1
     5     2     7 1
     6     2     9 1
     7     2    14 1
     8    10     3 1
     9     5     4 1
    10     4    15 1
    11     7     5 1
    12     5    16 1
    13     6    10 1
    14     8     7 2
    15    10     9 1
    16     9    17 1
    17     9    18 1
@<TRIPOS>SUBSTRUCTURE
     1 WJZ         1 TEMP              0 ****  ****    0 ROOT
