@<TRIPOS>MOLECULE
WL3
   26    27     1     0     0
SMALL
bcc


@<TRIPOS>ATOM
      1 C01         0.0930   -0.0720   -0.0310 ca        1 WL3     -0.127600
      2 C02        -0.4820   -2.6680   -3.8190 ca        1 WL3     -0.183000
      3 C03        -0.3700   -1.4840   -3.0950 ca        1 WL3     -0.076000
      4 C04        -1.8350   -2.3830   -1.3870 ca        1 WL3     -0.076000
      5 C05        -1.9580   -3.5720   -2.0990 ca        1 WL3     -0.183000
      6 C06        -1.2790   -3.7150   -3.3220 ca        1 WL3      0.106900
      7 C07         0.6640   -0.6250    2.2590 ca        1 WL3     -0.156000
      8 C08         1.9480   -0.1160    2.0570 ca        1 WL3     -0.150000
      9 C09         2.2980    0.4120    0.8190 ca        1 WL3     -0.108000
     10 C10         1.3780    0.4420   -0.2390 ca        1 WL3     -0.093600
     11 C11        -0.2600   -0.6020    1.2190 ca        1 WL3     -0.133000
     12 C12         1.8190    1.0330   -1.5710 c         1 WL3      0.909200
     13 F13        -1.3950   -4.8720   -4.0250 f         1 WL3     -0.162900
     14 O14         0.9750    1.0650   -2.5140 o         1 WL3     -0.823300
     15 O15         3.0040    1.4530   -1.6690 o         1 WL3     -0.823300
     16 C16        -0.9400   -0.0700   -1.0990 c         1 WL3      0.640300
     17 C17        -1.0450   -1.3380   -1.8770 ca        1 WL3     -0.139600
     18 O18        -1.7360    0.8560   -1.2680 o         1 WL3     -0.521100
     19 H11        -1.2730   -0.9990    1.3760 ha        1 WL3      0.111000
     20 H02         0.0480   -2.7910   -4.7730 ha        1 WL3      0.135500
     21 H03         0.2610   -0.6480   -3.4630 ha        1 WL3      0.172000
     22 H04        -2.3630   -2.2660   -0.4290 ha        1 WL3      0.172000
     23 H05        -2.5770   -4.3950   -1.7190 ha        1 WL3      0.135500
     24 H07         0.3810   -1.0410    3.2360 ha        1 WL3      0.108000
     25 H08         2.6790   -0.1330    2.8780 ha        1 WL3      0.109000
     26 H09         3.3050    0.8220    0.6330 ha        1 WL3      0.158000
@<TRIPOS>BOND
     1    1   10 ar  
     2    1   11 ar  
     3    1   16 1   
     4    2    3 ar  
     5    2    6 ar  
     6    2   20 1   
     7    3   17 ar  
     8    3   21 1   
     9    4    5 ar  
    10    4   17 ar  
    11    4   22 1   
    12    5    6 ar  
    13    5   23 1   
    14    6   13 1   
    15    7    8 ar  
    16    7   11 ar  
    17    7   24 1   
    18    8    9 ar  
    19    8   25 1   
    20    9   10 ar  
    21    9   26 1   
    22   10   12 1   
    23   11   19 1   
    24   12   14 1   
    25   12   15 1   
    26   16   17 1   
    27   16   18 2   
@<TRIPOS>SUBSTRUCTURE
     1 WL3         1 TEMP              0 ****  ****    0 ROOT
