@<TRIPOS>MOLECULE
molecule
   26    27     1     0     0
SMALL
bcc


@<TRIPOS>ATOM
      1 C01          0.0000     0.0000     0.0000 ca         1 WL3      -0.141600
      2 C02         -1.5680    -2.3680    -4.0660 ca         1 WL3      -0.186500
      3 C03         -1.4620    -1.2080    -3.3310 ca         1 WL3      -0.049500
      4 C04         -0.3720    -2.4410    -1.5600 ca         1 WL3      -0.049500
      5 C05         -0.4840    -3.5950    -2.3040 ca         1 WL3      -0.186500
      6 C06         -1.0800    -3.5620    -3.5550 ca         1 WL3       0.128900
      7 C07          0.0130    -0.0010     2.4030 ca         1 WL3      -0.158000
      8 C08          1.3970    -0.0010     2.4030 ca         1 WL3      -0.150000
      9 C09          2.0960     0.0000     1.2100 ca         1 WL3      -0.097000
     10 C10          1.4090     0.0000     0.0000 ca         1 WL3      -0.077600
     11 C11         -0.6860    -0.0010     1.2120 ca         1 WL3      -0.126000
     12 C12          2.1520     0.0000    -1.2780 c          1 WL3       0.876200
     13 F13         -1.1880    -4.6970    -4.2810 f          1 WL3      -0.160900
     14 O14          1.5530     0.1050    -2.3300 o          1 WL3      -0.820800
     15 O15          3.4930    -0.1170    -1.2770 o          1 WL3      -0.820800
     16 C16         -0.7440     0.0060    -1.2770 c          1 WL3       0.638300
     17 C17         -0.8620    -1.2340    -2.0690 ca         1 WL3      -0.121600
     18 O18         -1.2600     1.0320    -1.6760 o          1 WL3      -0.547100
     19 H11         -1.7700    -0.0010     1.2200 ha         1 WL3       0.115000
     20 H02         -2.0330    -2.3480    -5.0440 ha         1 WL3       0.131500
     21 H03         -1.8430    -0.2760    -3.7310 ha         1 WL3       0.150500
     22 H04          0.0950    -2.4680    -0.5830 ha         1 WL3       0.150500
     23 H05         -0.1050    -4.5310    -1.9110 ha         1 WL3       0.131500
     24 H07         -0.5250    -0.0010     3.3430 ha         1 WL3       0.106000
     25 H08          1.9350    -0.0010     3.3430 ha         1 WL3       0.108000
     26 H09          3.1800    -0.0000     1.2180 ha         1 WL3       0.158000
@<TRIPOS>BOND
     1    16     1 1
     2    11     1 ar
     3     1    10 ar
     4    20     2 1
     5     2     3 ar
     6     2     6 ar
     7    21     3 1
     8     3    17 ar
     9    17     4 ar
    10     5     4 ar
    11     4    22 1
    12     6     5 ar
    13     5    23 1
    14    13     6 1
    15    11     7 ar
    16    24     7 1
    17     7     8 ar
    18     8     9 ar
    19     8    25 1
    20    10     9 ar
    21     9    26 1
    22    10    12 1
    23    19    11 1
    24    14    12 1
    25    12    15 1
    26    18    16 2
    27    17    16 1
@<TRIPOS>SUBSTRUCTURE
     1 WL3         1 TEMP              0 ****  ****    0 ROOT
