@<TRIPOS>MOLECULE
WLH
   38    40     1     0     0
SMALL
bcc


@<TRIPOS>ATOM
      1 CAC          0.0000     0.0000     0.0000 c3         1 WLH       0.169300
      2 CAB          1.5320     0.0000     0.0000 c3         1 WLH       0.138300
      3 NAR          2.0190     0.0000     1.3850 n3         1 WLH      -0.545600
      4 CAA          3.4770    -0.1740     1.4320 c3         1 WLH       0.190100
      5 CAF          1.6110     1.2210     2.0940 c3         1 WLH       0.138300
      6 CAE          0.0820     1.2710     2.1800 c3         1 WLH       0.169300
      7 NAD         -0.4670     1.1260     0.8230 nh         1 WLH      -0.424600
      8 CAG         -1.3890     2.0150     0.3400 cc         1 WLH       0.414800
      9 NAH         -1.7810     1.9260    -0.9120 nd         1 WLH      -0.659300
     10 CAI         -2.6820     2.7660    -1.4340 cd         1 WLH       0.203400
     11 CAQ         -3.0570     2.5840    -2.8810 c3         1 WLH       0.030800
     12 CAP         -4.3670     3.3040    -3.1930 c3         1 WLH      -0.028400
     13 CAO         -4.2580     4.7470    -2.6880 c3         1 WLH      -0.034400
     14 CAN         -4.2430     4.7220    -1.1600 c3         1 WLH       0.072800
     15 CAJ         -3.2160     3.7430    -0.6570 cc         1 WLH      -0.329400
     16 CAK         -2.7960     3.8520     0.6860 c          1 WLH       0.619700
     17 OAL         -3.2520     4.7240     1.4070 o          1 WLH      -0.695500
     18 NAM         -1.8900     2.9750     1.1630 ns         1 WLH      -0.026400
     19 HAC1        -0.3630    -0.9310     0.4190 h1         1 WLH       0.036700
     20 HAC2        -0.3630     0.1160    -1.0140 h1         1 WLH       0.036700
     21 HAB1         1.8920    -0.8860    -0.5080 h1         1 WLH       0.018950
     22 HAB2         1.8920     0.8860    -0.5080 h1         1 WLH       0.018950
     23 HAA1         3.9560     0.6570     0.9290 h1         1 WLH       0.003033
     24 HAA2         3.7460    -1.0990     0.9370 h1         1 WLH       0.003033
     25 HAA3         3.8040    -0.2080     2.4640 h1         1 WLH       0.003033
     26 HAF1         2.0270     1.2140     3.0940 h1         1 WLH       0.018950
     27 HAF2         1.9700     2.0880     1.5530 h1         1 WLH       0.018950
     28 HAE1        -0.2270     2.2220     2.5970 h1         1 WLH       0.036700
     29 HAE2        -0.2730     0.4600     2.8040 h1         1 WLH       0.036700
     30 HAM         -1.5890     3.0300     2.1160 hn         1 WLH       0.186500
     31 HAQ1        -2.2710     2.9900    -3.5060 hc         1 WLH       0.027700
     32 HAQ2        -3.1740     1.5270    -3.0880 hc         1 WLH       0.027700
     33 HAP1        -5.1860     2.8040    -2.6890 hc         1 WLH       0.016200
     34 HAP2        -4.5360     3.3050    -4.2630 hc         1 WLH       0.016200
     35 HAO1        -3.3280     5.1760    -3.0430 hc         1 WLH       0.017200
     36 HAO2        -5.1240     5.3050    -3.0230 hc         1 WLH       0.017200
     37 HAN1        -5.2190     4.4070    -0.8110 hc         1 WLH       0.026700
     38 HAN2        -3.9830     5.7100    -0.8010 hc         1 WLH       0.026700
@<TRIPOS>BOND
     1     1     2 1   
     2     1     7 1   
     3     1    19 1   
     4     1    20 1   
     5     2     3 1   
     6     2    21 1   
     7     2    22 1   
     8     3     4 1   
     9     3     5 1   
    10     4    23 1   
    11     4    24 1   
    12     4    25 1   
    13     5     6 1   
    14     5    26 1   
    15     5    27 1   
    16     6     7 1   
    17     6    28 1   
    18     6    29 1   
    19     7     8 1   
    20     8     9 2   
    21     8    18 1   
    22     9    10 1   
    23    10    11 1   
    24    10    15 2   
    25    11    12 1   
    26    11    31 1   
    27    11    32 1   
    28    12    13 1   
    29    12    33 1   
    30    12    34 1   
    31    13    14 1   
    32    13    35 1   
    33    13    36 1   
    34    14    15 1   
    35    14    37 1   
    36    14    38 1   
    37    15    16 1   
    38    16    17 2   
    39    16    18 1   
    40    18    30 1   
@<TRIPOS>SUBSTRUCTURE
     1 WLH         1 TEMP              0 ****  ****    0 ROOT
