@<TRIPOS>MOLECULE
WLL
   35    37     1     0     0
SMALL
bcc


@<TRIPOS>ATOM
      1 C19          0.0000     0.0000     0.0000 ca         1 WLL      -0.055000
      2 C20          1.3820     0.0000     0.0000 ca         1 WLL      -0.127000
      3 C18         -0.6910     0.0060     1.1970 ca         1 WLL      -0.200000
      4 C10          6.9080    -7.0460     1.1440 cc         1 WLL      -0.055000
      5 C16          1.3900     0.0000     2.3940 ca         1 WLL      -0.123000
      6 C9           5.8120    -7.7920     1.1410 cd         1 WLL      -0.005100
      7 C6           6.7000    -5.6610     1.1530 cc         1 WLL      -0.229600
      8 C15          2.0770     0.0000     1.1960 ca         1 WLL      -0.092300
      9 C17          0.0030     0.0130     2.3970 ca         1 WLL       0.153100
     10 C7           5.3470    -5.3170     1.1570 cd         1 WLL       0.249300
     11 C4           7.6810    -4.5560     1.1580 c          1 WLL       0.616100
     12 C2           5.8650    -3.0550     1.1710 cc         1 WLL       0.243900
     13 C11          5.3840    -1.6560     1.1790 c          1 WLL       0.489800
     14 C22         -2.1020     0.0180     3.5030 c3         1 WLL       0.244700
     15 C14          3.5840    -0.0130     1.1910 c3         1 WLL       0.105300
     16 N1           4.9890    -4.0240     1.1660 nd         1 WLL      -0.494100
     17 N3           7.2130    -3.2900     1.1660 ns         1 WLL       0.052600
     18 N13          4.0610    -1.3980     1.1840 ns         1 WLL      -0.142900
     19 O12          6.1810    -0.7390     1.1810 o          1 WLL      -0.656100
     20 O21         -0.6750     0.0190     3.5760 os         1 WLL      -0.306900
     21 S8           4.3750    -6.7840     1.1420 ss         1 WLL      -0.224800
     22 H1          -0.5410    -0.0030    -0.9380 ha         1 WLL       0.104000
     23 H2           1.9230    -0.0020    -0.9390 ha         1 WLL       0.111000
     24 H3          -1.7750     0.0110     1.1970 ha         1 WLL       0.122000
     25 H4           7.9010    -7.4800     1.1430 ha         1 WLL       0.135000
     26 H5           1.9350     0.0030     3.3310 ha         1 WLL       0.122000
     27 H6           5.8050    -8.8750     1.1380 h4         1 WLL       0.155000
     28 H7          -2.4360    -0.8690     2.9780 h1         1 WLL      -0.001300
     29 H8          -2.5140     0.0220     4.5050 h1         1 WLL      -0.001300
     30 H9          -2.4370     0.9000     2.9710 h1         1 WLL      -0.001300
     31 H10          3.9530     0.4910     2.0760 h1         1 WLL       0.033200
     32 H11          3.9470     0.4980     0.3080 h1         1 WLL       0.033200
     33 H12          7.8540    -2.5210     1.1680 hn         1 WLL       0.206500
     34 H13          3.4040    -2.1530     1.1850 hn         1 WLL       0.200500
     35 O5           8.8790    -4.7810     1.1550 o          1 WLL      -0.659500
@<TRIPOS>BOND
     1     1     2 ar  
     2     1     3 ar  
     3     1    22 1   
     4     2     8 ar  
     5     2    23 1   
     6     3     9 ar  
     7     3    24 1   
     8     4     6 2   
     9     4     7 1   
    10     4    25 1   
    11     5     8 ar  
    12     5     9 ar  
    13     5    26 1   
    14     6    21 1   
    15     6    27 1   
    16     7    10 2   
    17     7    11 1   
    18     8    15 1   
    19     9    20 1   
    20    10    16 1   
    21    10    21 1   
    22    11    17 1   
    23    11    35 2   
    24    12    13 1   
    25    12    16 2   
    26    12    17 1   
    27    13    18 1   
    28    13    19 2   
    29    14    20 1   
    30    14    28 1   
    31    14    29 1   
    32    14    30 1   
    33    15    18 1   
    34    15    31 1   
    35    15    32 1   
    36    17    33 1   
    37    18    34 1   
@<TRIPOS>SUBSTRUCTURE
     1 WLL         1 TEMP              0 ****  ****    0 ROOT
