@<TRIPOS>MOLECULE
WLM
   55    57     1     0     0
SMALL
bcc


@<TRIPOS>ATOM
      1 C1           0.0000     0.0000     0.0000 ca         1 WLM      -0.191600
      2 C2           1.4020     0.0000     0.0000 ca         1 WLM       0.218100
      3 C3          -0.6910     0.0010     1.2140 ca         1 WLM      -0.044000
      4 C4          -0.7430     0.0060    -1.2750 c          1 WLM       0.600700
      5 C5           2.0890     0.0000     1.2040 ca         1 WLM      -0.218000
      6 O6           2.0820    -0.0010    -1.1740 os         1 WLM      -0.253900
      7 C7           0.0090     0.0010     2.4030 ca         1 WLM      -0.089600
      8 N8          -2.0900     0.0060    -1.2710 ns         1 WLM      -0.212900
      9 O9          -0.1380     0.0110    -2.3300 o          1 WLM      -0.627100
     10 C10          1.3950     0.0010     2.3970 ca         1 WLM      -0.028000
     11 C11          3.5090    -0.0010    -1.0960 c3         1 WLM       0.232700
     12 Cl          -0.8500     0.0030     3.9120 cl         1 WLM      -0.026400
     13 C13         -2.8270     0.0110    -2.5370 c3         1 WLM       0.057000
     14 C14         -4.3300     0.0100    -2.2510 c3         1 WLM       0.008900
     15 C15         -5.0880     0.0160    -3.5550 ca         1 WLM      -0.032300
     16 C16         -5.4360    -1.1780    -4.1580 ca         1 WLM      -0.131000
     17 C17         -5.4400     1.2160    -4.1440 ca         1 WLM      -0.131000
     18 C18         -6.1310    -1.1730    -5.3520 ca         1 WLM       0.017500
     19 C19         -6.1360     1.2220    -5.3390 ca         1 WLM       0.017500
     20 C20         -6.4790     0.0270    -5.9440 ca         1 WLM      -0.166500
     21 S21         -7.3640     0.0340    -7.4670 sy         1 WLM       1.032200
     22 N22         -8.9780     0.0320    -7.0960 nu         1 WLM      -0.436800
     23 O23         -7.0960     1.2860    -8.0820 o          1 WLM      -0.564300
     24 O24         -7.0950    -1.2130    -8.0940 o          1 WLM      -0.564300
     25 C25         -9.5410     1.1180    -6.4410 cc         1 WLM       0.600300
     26 S26        -11.2330     1.2860    -5.9690 ss         1 WLM      -0.419800
     27 N27         -8.9140     2.1930    -6.0580 nd         1 WLM      -0.360000
     28 C28        -10.8490     2.8690    -5.2890 cc         1 WLM       0.407700
     29 N29         -9.5870     3.0840    -5.4710 nd         1 WLM      -0.241000
     30 C30        -11.8190     3.8030    -4.6130 c3         1 WLM      -0.048000
     31 C31        -11.3620     4.0610    -3.1750 c3         1 WLM       0.005900
     32 C32        -11.8690     5.1280    -5.3780 c3         1 WLM       0.005900
     33 H3          -1.7740     0.0010     1.2220 ha         1 WLM       0.112000
     34 H5           3.1720     0.0000     1.2080 ha         1 WLM       0.129000
     35 H8          -2.5870     0.0030    -0.4020 hn         1 WLM       0.177500
     36 H10          1.9370     0.0010     3.3350 ha         1 WLM       0.112000
     37 H111         3.8420     0.8830    -0.5670 h1         1 WLM      -0.000300
     38 H112         3.9250    -0.0020    -2.0960 h1         1 WLM      -0.000300
     39 H113         3.8410    -0.8860    -0.5660 h1         1 WLM      -0.000300
     40 H131        -2.5670     0.8980    -3.1020 h1         1 WLM       0.031200
     41 H132        -2.5670    -0.8710    -3.1090 h1         1 WLM       0.031200
     42 H141        -4.5900     0.8920    -1.6790 hc         1 WLM       0.022200
     43 H142        -4.5900    -0.8770    -1.6860 hc         1 WLM       0.022200
     44 H16         -5.1630    -2.1180    -3.6940 ha         1 WLM       0.114500
     45 H17         -5.1710     2.1520    -3.6690 ha         1 WLM       0.114500
     46 H18         -6.4020    -2.1090    -5.8250 ha         1 WLM       0.134000
     47 H19         -6.4100     2.1620    -5.8020 ha         1 WLM       0.134000
     48 H22         -9.5530    -0.7410    -7.3680 hn         1 WLM       0.353800
     49 H30        -12.8050     3.3550    -4.6030 hc         1 WLM       0.031700
     50 H311       -11.2510     3.1160    -2.6570 hc         1 WLM       0.011033
     51 H312       -12.1000     4.6690    -2.6650 hc         1 WLM       0.011033
     52 H313       -10.4110     4.5800    -3.1860 hc         1 WLM       0.011033
     53 H321       -10.9020     5.6140    -5.3210 hc         1 WLM       0.011033
     54 H322       -12.1170     4.9370    -6.4150 hc         1 WLM       0.011033
     55 H323       -12.6230     5.7700    -4.9380 hc         1 WLM       0.011033
@<TRIPOS>BOND
     1     1     2 ar  
     2     1     3 ar  
     3     1     4 1   
     4     2     5 ar  
     5     2     6 1   
     6     3     7 ar  
     7     3    33 1   
     8     4     8 1   
     9     4     9 2   
    10     5    10 ar  
    11     5    34 1   
    12     6    11 1   
    13     7    10 ar  
    14     7    12 1   
    15     8    13 1   
    16     8    35 1   
    17    10    36 1   
    18    11    37 1   
    19    11    38 1   
    20    11    39 1   
    21    13    14 1   
    22    13    40 1   
    23    13    41 1   
    24    14    15 1   
    25    14    42 1   
    26    14    43 1   
    27    15    16 ar  
    28    15    17 ar  
    29    16    18 ar  
    30    16    44 1   
    31    17    19 ar  
    32    17    45 1   
    33    18    20 ar  
    34    18    46 1   
    35    19    20 ar  
    36    19    47 1   
    37    20    21 1   
    38    21    22 1   
    39    21    23 2   
    40    21    24 2   
    41    22    25 1   
    42    22    48 1   
    43    25    26 1   
    44    25    27 2   
    45    26    28 1   
    46    27    29 1   
    47    28    29 2   
    48    28    30 1   
    49    30    31 1   
    50    30    32 1   
    51    30    49 1   
    52    31    50 1   
    53    31    51 1   
    54    31    52 1   
    55    32    53 1   
    56    32    54 1   
    57    32    55 1   
@<TRIPOS>SUBSTRUCTURE
     1 WLM         1 TEMP              0 ****  ****    0 ROOT
