@<TRIPOS>MOLECULE
molecule
   16    16     1     0     0
SMALL
bcc


@<TRIPOS>ATOM
      1 CAD          0.0000     0.0000     0.0000 ca         1 WM1      -0.138300
      2 CAG          1.3860     0.0000     0.0000 ca         1 WM1      -0.086000
      3 CAH          2.0470     0.0000     1.2190 ca         1 WM1      -0.172300
      4 CAI          1.3090     0.0000     2.3920 ca         1 WM1       0.440200
      5 NAF         -0.0050     0.0000     2.3620 nb         1 WM1      -0.712000
      6 CAE         -0.6760     0.0000     1.2180 ca         1 WM1       0.295800
      7 CAB         -2.1580     0.0000     1.2350 c          1 WM1       0.419600
      8 OAC         -2.7780     0.0000     0.1890 o          1 WM1      -0.412100
      9 NAA         -2.8190     0.0000     2.4100 nz         1 WM1      -0.671400
     10 H1          -0.5490     0.0000    -0.9340 ha         1 WM1       0.177000
     11 H2           1.9400     0.0000    -0.9310 ha         1 WM1       0.179000
     12 H3           3.1300     0.0000     1.2540 ha         1 WM1       0.176000
     13 H4           1.8220    -0.0000     3.3460 h4         1 WM1       0.056100
     14 H5          -2.5710     0.8170     2.9320 hn         1 WM1       0.482800
     15 H6          -3.8050     0.0000     2.2380 hn         1 WM1       0.482800
     16 HAA3        -2.5710    -0.8170     2.9320 hn         1 WM1       0.482800
@<TRIPOS>BOND
     1     1     2 ar
     2     1     6 ar
     3     2     3 ar
     4     8     7 2
     5     7     6 1
     6     7     9 1
     7     6     5 ar
     8     3     4 ar
     9     5     4 ar
    10     1    10 1
    11     2    11 1
    12     3    12 1
    13     4    13 1
    14     9    14 1
    15     9    15 1
    16    16     9 1
@<TRIPOS>SUBSTRUCTURE
     1 WM1         1 TEMP              0 ****  ****    0 ROOT
