@<TRIPOS>MOLECULE
WM1
   16    16     1     0     0
SMALL
bcc


@<TRIPOS>ATOM
      1 CAD          0.0000     0.0000     0.0000 ca         1 WM1      -0.091300
      2 CAG          1.3860     0.0000     0.0000 ca         1 WM1      -0.057000
      3 CAH          2.0470     0.0000     1.2190 ca         1 WM1      -0.126300
      4 CAI          1.3090     0.0000     2.3920 ca         1 WM1       0.426200
      5 NAF         -0.0050     0.0000     2.3620 nb         1 WM1      -0.595000
      6 CAE         -0.6760     0.0000     1.2180 ca         1 WM1       0.227800
      7 CAB         -2.1580     0.0000     1.2350 c          1 WM1       0.256600
      8 OAC         -2.7780     0.0000     0.1890 o          1 WM1      -0.424100
      9 NAA         -2.8190     0.0000     2.4100 nz         1 WM1       0.213600
     10 H1          -0.5490     0.0000    -0.9340 ha         1 WM1       0.142000
     11 H2           1.9400     0.0000    -0.9310 ha         1 WM1       0.140000
     12 H3           3.1300     0.0000     1.2540 ha         1 WM1       0.138000
     13 H4           1.8220    -0.0000     3.3460 h4         1 WM1       0.006100
     14 H5          -2.5710     0.8170     2.9320 hn         1 WM1       0.248133
     15 H6          -3.8050     0.0000     2.2380 hn         1 WM1       0.248133
     16 HAA3        -2.5710    -0.8170     2.9320 hn         1 WM1       0.248133
@<TRIPOS>BOND
     1     1     2 ar  
     2     1     6 ar  
     3     1    10 1   
     4     2     3 ar  
     5     2    11 1   
     6     3     4 ar  
     7     3    12 1   
     8     4     5 ar  
     9     4    13 1   
    10     5     6 ar  
    11     6     7 1   
    12     7     8 2   
    13     7     9 1   
    14     9    14 1   
    15     9    15 1   
    16     9    16 1   
@<TRIPOS>SUBSTRUCTURE
     1 WM1         1 TEMP              0 ****  ****    0 ROOT
