@<TRIPOS>MOLECULE
molecule
   23    23     1     0     0
SMALL
bcc


@<TRIPOS>ATOM
      1 O9           0.0000     0.0000     0.0000 o          1 WM2      -0.394100
      2 C7           1.2130     0.0000     0.0000 c          1 WM2       0.480100
      3 N8           1.8870     0.0000     1.1670 nz         1 WM2      -0.684400
      4 C1           1.9670    -0.0060    -1.3040 c3         1 WM2      -0.150700
      5 C6           0.9730    -0.0120    -2.4680 c3         1 WM2      -0.075900
      6 C5           1.7380    -0.0180    -3.7930 c3         1 WM2      -0.076400
      7 C4           2.6170     1.2310    -3.8790 c3         1 WM2      -0.086400
      8 C3           3.6120     1.2360    -2.7160 c3         1 WM2      -0.076400
      9 C2           2.8470     1.2430    -1.3920 c3         1 WM2      -0.075900
     10 H1           2.0810     0.9430     1.4400 hn         1 WM2       0.477133
     11 H2           1.3330    -0.4440     1.8720 hn         1 WM2       0.477133
     12 H3           2.5920    -0.8900    -1.3610 hc         1 WM2       0.096700
     13 H4           0.3530    -0.8980    -2.4060 hc         1 WM2       0.056950
     14 H5           0.3520     0.8740    -2.4150 hc         1 WM2       0.056950
     15 H6           1.0330    -0.0200    -4.6150 hc         1 WM2       0.063950
     16 H7           2.3620    -0.9020    -3.8440 hc         1 WM2       0.063950
     17 H8           1.9930     2.1150    -3.8230 hc         1 WM2       0.064700
     18 H9           3.1600     1.2250    -4.8170 hc         1 WM2       0.064700
     19 H10          4.2330     2.1210    -2.7780 hc         1 WM2       0.063950
     20 H11          4.2320     0.3490    -2.7690 hc         1 WM2       0.063950
     21 H12          2.2230     2.1270    -1.3420 hc         1 WM2       0.056950
     22 H13          3.5520     1.2450    -0.5690 hc         1 WM2       0.056950
     23 H83          2.7460    -0.5020     1.0560 hn         1 WM2       0.477133
@<TRIPOS>BOND
     1     8     9 1
     2     8     7 1
     3     9     4 1
     4     1     2 2
     5     7     6 1
     6     4     2 1
     7     4     5 1
     8     2     3 1
     9     6     5 1
    10     3    10 1
    11     3    11 1
    12     4    12 1
    13     5    13 1
    14     5    14 1
    15     6    15 1
    16     6    16 1
    17     7    17 1
    18     7    18 1
    19     8    19 1
    20     8    20 1
    21     9    21 1
    22     9    22 1
    23    23     3 1
@<TRIPOS>SUBSTRUCTURE
     1 WM2         1 TEMP              0 ****  ****    0 ROOT
