@<TRIPOS>MOLECULE
molecule
   20    20     1     0     0
SMALL
bcc


@<TRIPOS>ATOM
      1 OAB          0.0000     0.0000     0.0000 o          1 WM3      -0.555300
      2 SAD          1.4210     0.0000     0.0000 sy         1 WM3       1.356200
      3 OAE          2.1980     0.0000     1.1890 o          1 WM3      -0.555300
      4 NAC          1.8880    -1.3340    -0.8640 n7         1 WM3      -0.725900
      5 NAA          3.2090    -1.5340    -1.1510 nz         1 WM3      -0.490400
      6 CAG          1.9190     1.4170    -0.9200 ca         1 WM3      -0.356500
      7 CAF          1.0610     1.9730    -1.8520 ca         1 WM3      -0.038000
      8 CAH          3.1650     1.9760    -0.7080 ca         1 WM3      -0.038000
      9 CAK          3.5570     3.0890    -1.4300 ca         1 WM3      -0.131000
     10 CAJ          2.7010     3.6410    -2.3650 ca         1 WM3      -0.041000
     11 CAI          1.4530     3.0850    -2.5740 ca         1 WM3      -0.131000
     12 H1           1.2020    -1.9920    -1.1780 hn         1 WM3       0.513800
     13 H2           3.3400    -2.4700    -1.4800 hn         1 WM3       0.468800
     14 H3           3.7550    -1.3910    -0.3250 hn         1 WM3       0.468800
     15 H4           0.0830     1.5370    -2.0160 ha         1 WM3       0.151000
     16 H5           3.8350     1.5430     0.0240 ha         1 WM3       0.151000
     17 H6           4.5340     3.5260    -1.2650 ha         1 WM3       0.161000
     18 H7           3.0070     4.5120    -2.9310 ha         1 WM3       0.161000
     19 H8           0.7830     3.5190    -3.3060 ha         1 WM3       0.161000
     20 HAA3         3.4940    -0.8980    -1.8690 hn         1 WM3       0.468800
@<TRIPOS>BOND
     1     9     8 ar
     2     9    10 ar
     3     8     6 ar
     4     4     5 1
     5     4     2 1
     6    10    11 ar
     7     1     2 2
     8     6     2 1
     9     6     7 ar
    10     2     3 2
    11    11     7 ar
    12     4    12 1
    13     5    13 1
    14     5    14 1
    15     7    15 1
    16     8    16 1
    17     9    17 1
    18    10    18 1
    19    11    19 1
    20    20     5 1
@<TRIPOS>SUBSTRUCTURE
     1 WM3         1 TEMP              0 ****  ****    0 ROOT
