@<TRIPOS>MOLECULE
molecule
   19    19     1     0     0
SMALL
bcc


@<TRIPOS>ATOM
      1 CAE          0.0000     0.0000     0.0000 ca         1 WM4      -0.071000
      2 CAH          1.3800     0.0000     0.0000 ca         1 WM4      -0.122000
      3 CAI          2.0750     0.0000     1.1960 ca         1 WM4      -0.063000
      4 CAJ          1.3920     0.0010     2.4000 ca         1 WM4      -0.122000
      5 CAG          0.0120     0.0020     2.4130 ca         1 WM4      -0.071000
      6 CAF         -0.6940     0.0010     1.2100 ca         1 WM4      -0.175600
      7 CAB         -2.1730     0.0080     1.2180 c          1 WM4       0.685700
      8 OAA         -2.7860     0.0120     0.1680 o          1 WM4      -0.555100
      9 NAC         -2.8410     0.0090     2.3880 ns         1 WM4      -0.527300
     10 NAD         -4.2070     0.0140     2.3950 nz         1 WM4      -0.532600
     11 H1          -0.5420    -0.0710    -0.9350 ha         1 WM4       0.138500
     12 H2           1.9200     0.0000    -0.9390 ha         1 WM4       0.159500
     13 H3           3.1580    -0.0010     1.1900 ha         1 WM4       0.159000
     14 H4           1.9420     0.0010     3.3340 ha         1 WM4       0.159500
     15 H5          -0.5200    -0.0630     3.3540 ha         1 WM4       0.138500
     16 H6          -2.3360     0.0130     3.2520 hn         1 WM4       0.391500
     17 H7          -4.5360     0.0120     3.3410 hn         1 WM4       0.469467
     18 H8          -4.5400     0.8330     1.9280 hn         1 WM4       0.469467
     19 HAD3        -4.5460    -0.8010     1.9230 hn         1 WM4       0.469467
@<TRIPOS>BOND
     1     2     1 ar
     2     2     3 ar
     3     1     6 ar
     4     3     4 ar
     5     6     7 1
     6     6     5 ar
     7     8     7 2
     8     7     9 1
     9     4     5 ar
    10     9    10 1
    11     1    11 1
    12     2    12 1
    13     3    13 1
    14     4    14 1
    15     5    15 1
    16     9    16 1
    17    10    17 1
    18    10    18 1
    19    19    10 1
@<TRIPOS>SUBSTRUCTURE
     1 WM4         1 TEMP              0 ****  ****    0 ROOT
