@<TRIPOS>MOLECULE
WM4
   19    19     1     0     0
SMALL
bcc


@<TRIPOS>ATOM
      1 CAE          0.0000     0.0000     0.0000 ca         1 WM4      -0.036500
      2 CAH          1.3800     0.0000     0.0000 ca         1 WM4      -0.093500
      3 CAI          2.0750     0.0000     1.1960 ca         1 WM4      -0.025000
      4 CAJ          1.3920     0.0010     2.4000 ca         1 WM4      -0.093500
      5 CAG          0.0120     0.0020     2.4130 ca         1 WM4      -0.036500
      6 CAF         -0.6940     0.0010     1.2100 ca         1 WM4      -0.201600
      7 CAB         -2.1730     0.0080     1.2180 c          1 WM4       0.652700
      8 OAA         -2.7860     0.0120     0.1680 o          1 WM4      -0.586100
      9 NAC         -2.8410     0.0090     2.3880 ns         1 WM4      -0.391300
     10 NAD         -4.2070     0.0140     2.3950 nz         1 WM4       0.288400
     11 H1          -0.5420    -0.0710    -0.9350 ha         1 WM4       0.108000
     12 H2           1.9200     0.0000    -0.9390 ha         1 WM4       0.124500
     13 H3           3.1580    -0.0010     1.1900 ha         1 WM4       0.121000
     14 H4           1.9420     0.0010     3.3340 ha         1 WM4       0.124500
     15 H5          -0.5200    -0.0630     3.3540 ha         1 WM4       0.108000
     16 H6          -2.3360     0.0130     3.2520 hn         1 WM4       0.277500
     17 H7          -4.5360     0.0120     3.3410 hn         1 WM4       0.219800
     18 H8          -4.5400     0.8330     1.9280 hn         1 WM4       0.219800
     19 HAD3        -4.5460    -0.8010     1.9230 hn         1 WM4       0.219800
@<TRIPOS>BOND
     1     1     2 ar  
     2     1     6 ar  
     3     1    11 1   
     4     2     3 ar  
     5     2    12 1   
     6     3     4 ar  
     7     3    13 1   
     8     4     5 ar  
     9     4    14 1   
    10     5     6 ar  
    11     5    15 1   
    12     6     7 1   
    13     7     8 2   
    14     7     9 1   
    15     9    10 1   
    16     9    16 1   
    17    10    17 1   
    18    10    18 1   
    19    10    19 1   
@<TRIPOS>SUBSTRUCTURE
     1 WM4         1 TEMP              0 ****  ****    0 ROOT
