@<TRIPOS>MOLECULE
molecule
   39    41     1     0     0
SMALL
bcc


@<TRIPOS>ATOM
      1 C1           1.5310     0.0000     0.0000 c3         1 WM9      -0.105100
      2 C2           0.0000     0.0000     0.0000 c3         1 WM9       0.404300
      3 N3          -0.4800     0.0000     1.3770 n2         1 WM9      -0.561900
      4 C4          -0.9590    -1.0340     1.9630 c2         1 WM9       0.434200
      5 C5          -1.0870    -2.3690     1.2820 c3         1 WM9      -0.195700
      6 C6          -0.2260    -2.3760     0.0140 c3         1 WM9       0.140400
      7 O7          -0.4710    -1.1550    -0.6960 os         1 WM9      -0.399600
      8 N8          -1.3710    -0.9190     3.2650 nz         1 WM9      -0.743600
      9 C9          -0.4960     1.2380    -0.7000 ca         1 WM9      -0.103300
     10 C10         -0.7240     1.2160    -2.0640 ca         1 WM9      -0.089000
     11 C11         -1.1800     2.3490    -2.7130 ca         1 WM9      -0.117000
     12 C12         -1.4100     3.5100    -2.0020 ca         1 WM9      -0.093000
     13 C13         -1.1830     3.5380    -0.6280 cp         1 WM9      -0.026000
     14 C14         -0.7280     2.3910     0.0220 ca         1 WM9      -0.105000
     15 C15         -1.4300     4.7820     0.1430 cp         1 WM9      -0.038000
     16 C16         -1.8900     5.9260    -0.5060 ca         1 WM9      -0.111000
     17 C17         -2.1170     7.0810     0.2140 ca         1 WM9      -0.108000
     18 C18         -1.8890     7.1050     1.5790 ca         1 WM9      -0.107000
     19 C19         -1.4330     5.9710     2.2290 ca         1 WM9       0.030400
     20 C20         -1.2080     4.8080     1.5180 ca         1 WM9      -0.123000
     21 Cl          -1.1500     6.0090     3.9410 cl         1 WM9      -0.104400
     22 H11C         1.8920    -0.5460     0.8630 hc         1 WM9       0.069367
     23 H12C         1.8920    -0.4740    -0.9050 hc         1 WM9       0.069367
     24 H13C         1.8920     1.0200     0.0420 hc         1 WM9       0.069367
     25 H51C        -0.7460    -3.1490     1.9520 hc         1 WM9       0.087700
     26 H52C        -2.1230    -2.5400     1.0160 hc         1 WM9       0.087700
     27 H81N        -0.8600    -0.1840     3.7130 hn         1 WM9       0.468133
     28 H82N        -1.2050    -1.7810     3.7450 hn         1 WM9       0.468133
     29 H61C         0.8210    -2.4370     0.2830 h1         1 WM9       0.084200
     30 H62C        -0.5000    -3.2200    -0.6080 h1         1 WM9       0.084200
     31 H10         -0.5450     0.3070    -2.6260 ha         1 WM9       0.151000
     32 H14         -0.5510     2.4080     1.0900 ha         1 WM9       0.137000
     33 H11         -1.3560     2.3250    -3.7820 ha         1 WM9       0.151000
     34 H12         -1.7650     4.3970    -2.5120 ha         1 WM9       0.149000
     35 H16         -2.0680     5.9090    -1.5740 ha         1 WM9       0.141000
     36 H20         -0.8510     3.9210     2.0280 ha         1 WM9       0.131000
     37 H17         -2.4740     7.9710    -0.2900 ha         1 WM9       0.150000
     38 H18         -2.0670     8.0140     2.1400 ha         1 WM9       0.155000
     39 H83         -2.3490    -0.7060     3.2880 hn         1 WM9       0.468133
@<TRIPOS>BOND
     1     1     2 1
     2     2     3 1
     3     2     7 1
     4     2     9 1
     5     3     4 2
     6     4     5 1
     7     4     8 1
     8     5     6 1
     9     6     7 1
    10     9    10 ar
    11     9    14 ar
    12    10    11 ar
    13    11    12 ar
    14    12    13 ar
    15    13    14 ar
    16    13    15 1
    17    15    16 ar
    18    15    20 ar
    19    16    17 ar
    20    17    18 ar
    21    18    19 ar
    22    19    20 ar
    23    19    21 1
    24     1    22 1
    25     1    23 1
    26     1    24 1
    27     5    25 1
    28     5    26 1
    29     8    27 1
    30     8    28 1
    31     6    29 1
    32     6    30 1
    33    10    31 1
    34    14    32 1
    35    11    33 1
    36    12    34 1
    37    16    35 1
    38    20    36 1
    39    17    37 1
    40    18    38 1
    41    39     8 1
@<TRIPOS>SUBSTRUCTURE
     1 WM9         1 TEMP              0 ****  ****    0 ROOT
