@<TRIPOS>MOLECULE
molecule
   48    50     1     0     0
SMALL
bcc


@<TRIPOS>ATOM
      1 OAD          0.0000     0.0000     0.0000 o          1 WMJ      -0.662500
      2 CAX          1.2160     0.0000     0.0000 c          1 WMJ       0.813500
      3 NAQ          1.8800     0.0000     1.1700 ns         1 WMJ      -0.557500
      4 CAW          3.2290    -0.0000     1.1860 c          1 WMJ       0.707700
      5 OAC          3.8310     0.0000     2.2450 o          1 WMJ      -0.615500
      6 CAT          3.9380    -0.0020    -0.0380 cc         1 WMJ      -0.278400
      7 CAA          5.4450    -0.0030    -0.0480 c3         1 WMJ      -0.014900
      8 CAL          3.2470    -0.0030    -1.1980 cd         1 WMJ       0.034600
      9 NBC          1.8780    -0.0070    -1.1720 n          1 WMJ      -0.382000
     10 CBA          1.1280    -0.0130    -2.4290 c3         1 WMJ       0.323500
     11 OAR          2.0360    -0.0550    -3.5370 os         1 WMJ      -0.420600
     12 CAN          0.2430    -1.2770    -2.5050 c3         1 WMJ      -0.142400
     13 CAY          0.3710    -1.6790    -3.9990 c3         1 WMJ       0.118100
     14 OAE          0.1970    -3.0870    -4.1700 oh         1 WMJ      -0.588800
     15 CAZ          1.8330    -1.2580    -4.2930 c3         1 WMJ       0.110100
     16 CAM          2.0170    -0.9850    -5.7870 c3         1 WMJ       0.135000
     17 NAO          3.4160    -0.6380    -6.0530 ns         1 WMJ      -0.593900
     18 CAS          3.8140    -0.3550    -7.3080 c          1 WMJ       0.783100
     19 OAB          3.0120    -0.3860    -8.2220 o          1 WMJ      -0.640100
     20 NAP          5.1000    -0.0370    -7.5520 ns         1 WMJ      -0.492100
     21 CAU          5.5380     0.1490    -8.8680 ca         1 WMJ       0.120600
     22 CAI          6.5330     1.0770    -9.1460 ca         1 WMJ      -0.158500
     23 CAK          6.9640     1.2570   -10.4450 ca         1 WMJ      -0.050000
     24 CAH          4.9830    -0.5990    -9.8980 ca         1 WMJ      -0.158500
     25 CAJ          5.4180    -0.4140   -11.1950 ca         1 WMJ      -0.050000
     26 CAV          6.4050     0.5150   -11.4700 ca         1 WMJ      -0.179200
     27 NBB          6.8680     0.7110   -12.8620 no         1 WMJ       0.297200
     28 OAG          7.7410     1.5260   -13.1040 o          1 WMJ      -0.209000
     29 OAF          6.3770     0.0580   -13.7650 o          1 WMJ      -0.209000
     30 HAQ          1.3710     0.0000     2.0320 hn         1 WMJ       0.366500
     31 HAA1         5.8110     0.6890     0.7010 hc         1 WMJ       0.048367
     32 HAA2         5.8000     0.3010    -1.0250 hc         1 WMJ       0.048367
     33 HAA3         5.8070    -1.0000     0.1740 hc         1 WMJ       0.048367
     34 HAL          3.7730    -0.0070    -2.1450 h4         1 WMJ       0.175000
     35 HBA          0.5080     0.8720    -2.4980 h2         1 WMJ       0.099700
     36 HAN1        -0.7850    -1.0400    -2.2580 hc         1 WMJ       0.089200
     37 HAN2         0.6330    -2.0570    -1.8630 hc         1 WMJ       0.089200
     38 HAZ          2.5180    -2.0290    -3.9600 h1         1 WMJ       0.075700
     39 HAY         -0.3230    -1.1170    -4.6120 h1         1 WMJ       0.059700
     40 HAE         -0.6760    -3.2610    -4.4810 ho         1 WMJ       0.417000
     41 HAM1         1.7510    -1.8710    -6.3520 h1         1 WMJ       0.070700
     42 HAM2         1.3780    -0.1620    -6.0850 h1         1 WMJ       0.070700
     43 HAO          4.0780    -0.6220    -5.3020 hn         1 WMJ       0.314500
     44 HAP          5.7460     0.0530    -6.7930 hn         1 WMJ       0.324500
     45 HAI          6.9720     1.6580    -8.3440 ha         1 WMJ       0.162000
     46 HAH          4.2100    -1.3270    -9.6830 ha         1 WMJ       0.162000
     47 HAK          7.7390     1.9830   -10.6630 ha         1 WMJ       0.168500
     48 HAJ          4.9830    -0.9950   -12.0000 ha         1 WMJ       0.168500
@<TRIPOS>BOND
     1     1     2 2
     2     2     3 1
     3     2     9 1
     4     3     4 1
     5     4     5 2
     6     4     6 1
     7     6     7 1
     8     6     8 2
     9     8     9 1
    10     9    10 1
    11    10    11 1
    12    10    12 1
    13    11    15 1
    14    12    13 1
    15    13    14 1
    16    13    15 1
    17    15    16 1
    18    16    17 1
    19    17    18 1
    20    18    19 2
    21    18    20 1
    22    20    21 1
    23    21    22 ar
    24    21    24 ar
    25    22    23 ar
    26    23    26 ar
    27    24    25 ar
    28    25    26 ar
    29    26    27 1
    30    27    28 1
    31    27    29 1
    32     3    30 1
    33     7    31 1
    34     7    32 1
    35     7    33 1
    36     8    34 1
    37    10    35 1
    38    12    36 1
    39    12    37 1
    40    15    38 1
    41    13    39 1
    42    14    40 1
    43    16    41 1
    44    16    42 1
    45    17    43 1
    46    20    44 1
    47    22    45 1
    48    24    46 1
    49    23    47 1
    50    25    48 1
@<TRIPOS>SUBSTRUCTURE
     1 WMJ         1 TEMP              0 ****  ****    0 ROOT
