@<TRIPOS>MOLECULE
WMJ
   48    50     1     0     0
SMALL
bcc


@<TRIPOS>ATOM
      1 OAD          0.0000     0.0000     0.0000 o          1 WMJ      -0.712500
      2 CAX          1.2160     0.0000     0.0000 c          1 WMJ       0.593500
      3 NAQ          1.8800     0.0000     1.1700 ns         1 WMJ      -0.122500
      4 CAW          3.2290    -0.0000     1.1860 c          1 WMJ       0.617700
      5 OAC          3.8310     0.0000     2.2450 o          1 WMJ      -0.653500
      6 CAT          3.9380    -0.0020    -0.0380 cc         1 WMJ      -0.277400
      7 CAA          5.4450    -0.0030    -0.0480 c3         1 WMJ       0.100100
      8 CAL          3.2470    -0.0030    -1.1980 cd         1 WMJ      -0.096400
      9 NBC          1.8780    -0.0070    -1.1720 n          1 WMJ       0.020000
     10 CBA          1.1280    -0.0130    -2.4290 c3         1 WMJ       0.251500
     11 OAR          2.0360    -0.0550    -3.5370 os         1 WMJ      -0.410600
     12 CAN          0.2430    -1.2770    -2.5050 c3         1 WMJ      -0.099400
     13 CAY          0.3710    -1.6790    -3.9990 c3         1 WMJ       0.168100
     14 OAE          0.1970    -3.0870    -4.1700 oh         1 WMJ      -0.570800
     15 CAZ          1.8330    -1.2580    -4.2930 c3         1 WMJ       0.148100
     16 CAM          2.0170    -0.9850    -5.7870 c3         1 WMJ       0.062000
     17 NAO          3.4160    -0.6380    -6.0530 ns         1 WMJ      -0.205900
     18 CAS          3.8140    -0.3550    -7.3080 c          1 WMJ       0.567100
     19 OAB          3.0120    -0.3860    -8.2220 o          1 WMJ      -0.687100
     20 NAP          5.1000    -0.0370    -7.5520 ns         1 WMJ      -0.055100
     21 CAU          5.5380     0.1490    -8.8680 ca         1 WMJ      -0.009400
     22 CAI          6.5330     1.0770    -9.1460 ca         1 WMJ      -0.146500
     23 CAK          6.9640     1.2570   -10.4450 ca         1 WMJ       0.012000
     24 CAH          4.9830    -0.5990    -9.8980 ca         1 WMJ      -0.146500
     25 CAJ          5.4180    -0.4140   -11.1950 ca         1 WMJ       0.012000
     26 CAV          6.4050     0.5150   -11.4700 ca         1 WMJ      -0.475200
     27 NBB          6.8680     0.7110   -12.8620 no         1 WMJ       1.052200
     28 OAG          7.7410     1.5260   -13.1040 o          1 WMJ      -0.454000
     29 OAF          6.3770     0.0580   -13.7650 o          1 WMJ      -0.454000
     30 HAQ          1.3710     0.0000     2.0320 hn         1 WMJ       0.208500
     31 HAA1         5.8110     0.6890     0.7010 hc         1 WMJ       0.010700
     32 HAA2         5.8000     0.3010    -1.0250 hc         1 WMJ       0.010700
     33 HAA3         5.8070    -1.0000     0.1740 hc         1 WMJ       0.010700
     34 HAL          3.7730    -0.0070    -2.1450 h4         1 WMJ       0.148000
     35 HBA          0.5080     0.8720    -2.4980 h2         1 WMJ       0.055700
     36 HAN1        -0.7850    -1.0400    -2.2580 hc         1 WMJ       0.055200
     37 HAN2         0.6330    -2.0570    -1.8630 hc         1 WMJ       0.055200
     38 HAZ          2.5180    -2.0290    -3.9600 h1         1 WMJ       0.038700
     39 HAY         -0.3230    -1.1170    -4.6120 h1         1 WMJ       0.025700
     40 HAE         -0.6760    -3.2610    -4.4810 ho         1 WMJ       0.402000
     41 HAM1         1.7510    -1.8710    -6.3520 h1         1 WMJ       0.040200
     42 HAM2         1.3780    -0.1620    -6.0850 h1         1 WMJ       0.040200
     43 HAO          4.0780    -0.6220    -5.3020 hn         1 WMJ       0.171500
     44 HAP          5.7460     0.0530    -6.7930 hn         1 WMJ       0.166500
     45 HAI          6.9720     1.6580    -8.3440 ha         1 WMJ       0.134500
     46 HAH          4.2100    -1.3270    -9.6830 ha         1 WMJ       0.134500
     47 HAK          7.7390     1.9830   -10.6630 ha         1 WMJ       0.132000
     48 HAJ          4.9830    -0.9950   -12.0000 ha         1 WMJ       0.132000
@<TRIPOS>BOND
     1     1     2 2   
     2     2     3 1   
     3     2     9 1   
     4     3     4 1   
     5     3    30 1   
     6     4     5 2   
     7     4     6 1   
     8     6     7 1   
     9     6     8 2   
    10     7    31 1   
    11     7    32 1   
    12     7    33 1   
    13     8     9 1   
    14     8    34 1   
    15     9    10 1   
    16    10    11 1   
    17    10    12 1   
    18    10    35 1   
    19    11    15 1   
    20    12    13 1   
    21    12    36 1   
    22    12    37 1   
    23    13    14 1   
    24    13    15 1   
    25    13    39 1   
    26    14    40 1   
    27    15    16 1   
    28    15    38 1   
    29    16    17 1   
    30    16    41 1   
    31    16    42 1   
    32    17    18 1   
    33    17    43 1   
    34    18    19 2   
    35    18    20 1   
    36    20    21 1   
    37    20    44 1   
    38    21    22 ar  
    39    21    24 ar  
    40    22    23 ar  
    41    22    45 1   
    42    23    26 ar  
    43    23    47 1   
    44    24    25 ar  
    45    24    46 1   
    46    25    26 ar  
    47    25    48 1   
    48    26    27 1   
    49    27    28 1   
    50    27    29 1   
@<TRIPOS>SUBSTRUCTURE
     1 WMJ         1 TEMP              0 ****  ****    0 ROOT
