@<TRIPOS>MOLECULE
molecule
   30    32     1     0     0
SMALL
bcc


@<TRIPOS>ATOM
      1 C17          0.0000     0.0000     0.0000 ca         1 WMM      -0.148000
      2 C16          1.3830     0.0000     0.0000 ca         1 WMM      -0.097000
      3 C18         -0.6950     0.0020     1.1950 ca         1 WMM      -0.097000
      4 C15          2.0750     0.0000     1.1950 ca         1 WMM      -0.167000
      5 C19         -0.0090     0.0080     2.3940 ca         1 WMM      -0.167000
      6 C4           5.2750    -2.1180     3.5800 cc         1 WMM      -0.215400
      7 C10          9.9660    -0.3920     8.5220 cc         1 WMM       0.352400
      8 C14          1.3800    -0.0030     2.3980 ca         1 WMM       0.153600
      9 C3           5.1320    -1.4240     4.7110 cd         1 WMM       0.410600
     10 C8           8.3990    -0.5010     7.0130 cc         1 WMM       0.465800
     11 C1           3.2600    -0.7110     3.7320 cc         1 WMM       0.712300
     12 N11          9.1340    -1.3500     8.8170 nd         1 WMM      -0.345000
     13 N2           4.0430    -0.6790     4.7650 nd         1 WMM      -0.751000
     14 N12          8.2070    -1.4200     7.9310 nd         1 WMM      -0.369000
     15 N9           9.5270     0.1830     7.3610 na         1 WMM      -0.427700
     16 N13          2.0770     0.0020     3.6090 nu         1 WMM      -0.752300
     17 S5           3.8970    -1.7610     2.5430 ss         1 WMM      -0.198300
     18 S7           7.3900    -0.2080     5.5970 ss         1 WMM      -0.271400
     19 H1          -0.5400    -0.0020    -0.9390 ha         1 WMM       0.134000
     20 H2           1.9240     0.0000    -0.9380 ha         1 WMM       0.136000
     21 H3          -1.7780     0.0060     1.1920 ha         1 WMM       0.136000
     22 H4           3.1590    -0.0040     1.1950 ha         1 WMM       0.143000
     23 H5          -0.5540     0.0080     3.3300 ha         1 WMM       0.143000
     24 H6           6.0960    -2.7840     3.3420 h4         1 WMM       0.185000
     25 H11          1.7370     0.5430     4.3800 hn         1 WMM       0.469800
     26 H10          9.9470     0.9480     6.8690 hn         1 WMM       0.313700
     27 C6           6.1330    -1.4870     5.8360 c3         1 WMM      -0.012600
     28 H7          10.8420    -0.1050     9.0900 h5         1 WMM       0.074100
     29 H8           5.6260    -1.3230     6.7800 h1         1 WMM       0.095700
     30 H9           6.6060    -2.4610     5.8450 h1         1 WMM       0.095700
@<TRIPOS>BOND
     1     7    15 1
     2     7    12 2
     3    15    10 1
     4    12    14 1
     5    10    14 2
     6    10    18 1
     7    27    18 1
     8    27     9 1
     9     6     9 2
    10     6    17 1
    11     9    13 1
    12    17    11 1
    13    13    11 2
    14    11    16 1
    15    16     8 1
    16     5     8 ar
    17     5     3 ar
    18     8     4 ar
    19     3     1 ar
    20     4     2 ar
    21     1     2 ar
    22     1    19 1
    23     2    20 1
    24     3    21 1
    25     4    22 1
    26     5    23 1
    27     6    24 1
    28     7    28 1
    29    27    29 1
    30    27    30 1
    31    16    25 1
    32    15    26 1
@<TRIPOS>SUBSTRUCTURE
     1 WMM         1 TEMP              0 ****  ****    0 ROOT
