@<TRIPOS>MOLECULE
WMM
   30    32     1     0     0
SMALL
bcc


@<TRIPOS>ATOM
      1 C17          0.0000     0.0000     0.0000 ca         1 WMM      -0.116000
      2 C16          1.3830     0.0000     0.0000 ca         1 WMM      -0.069500
      3 C18         -0.6950     0.0020     1.1950 ca         1 WMM      -0.069500
      4 C15          2.0750     0.0000     1.1950 ca         1 WMM      -0.137500
      5 C19         -0.0090     0.0080     2.3940 ca         1 WMM      -0.137500
      6 C4           5.2750    -2.1180     3.5800 cc         1 WMM      -0.148400
      7 C10          9.9660    -0.3920     8.5220 cc         1 WMM       0.182400
      8 C14          1.3800    -0.0030     2.3980 ca         1 WMM      -0.015400
      9 C3           5.1320    -1.4240     4.7110 cd         1 WMM       0.374600
     10 C8           8.3990    -0.5010     7.0130 cc         1 WMM       0.298800
     11 C1           3.2600    -0.7110     3.7320 cc         1 WMM       0.547300
     12 N11          9.1340    -1.3500     8.8170 nd         1 WMM      -0.308000
     13 N2           4.0430    -0.6790     4.7650 nd         1 WMM      -0.642000
     14 N12          8.2070    -1.4200     7.9310 nd         1 WMM      -0.345000
     15 N9           9.5270     0.1830     7.3610 na         1 WMM       0.119300
     16 N13          2.0770     0.0020     3.6090 nu         1 WMM      -0.264300
     17 S5           3.8970    -1.7610     2.5430 ss         1 WMM      -0.303300
     18 S7           7.3900    -0.2080     5.5970 ss         1 WMM      -0.382400
     19 H1          -0.5400    -0.0020    -0.9390 ha         1 WMM       0.105000
     20 H2           1.9240     0.0000    -0.9380 ha         1 WMM       0.105000
     21 H3          -1.7780     0.0060     1.1920 ha         1 WMM       0.105000
     22 H4           3.1590    -0.0040     1.1950 ha         1 WMM       0.124000
     23 H5          -0.5540     0.0080     3.3300 ha         1 WMM       0.124000
     24 H6           6.0960    -2.7840     3.3420 h4         1 WMM       0.167000
     25 H11          1.7370     0.5430     4.3800 hn         1 WMM       0.295800
     26 H10          9.9470     0.9480     6.8690 hn         1 WMM       0.142700
     27 C6           6.1330    -1.4870     5.8360 c3         1 WMM       0.089400
     28 H7          10.8420    -0.1050     9.0900 h5         1 WMM       0.033100
     29 H8           5.6260    -1.3230     6.7800 h1         1 WMM       0.062200
     30 H9           6.6060    -2.4610     5.8450 h1         1 WMM       0.062200
@<TRIPOS>BOND
     1     1     2 ar  
     2     1     3 ar  
     3     1    19 1   
     4     2     4 ar  
     5     2    20 1   
     6     3     5 ar  
     7     3    21 1   
     8     4     8 ar  
     9     4    22 1   
    10     5     8 ar  
    11     5    23 1   
    12     6     9 2   
    13     6    17 1   
    14     6    24 1   
    15     7    12 2   
    16     7    15 1   
    17     7    28 1   
    18     8    16 1   
    19     9    13 1   
    20     9    27 1   
    21    10    14 2   
    22    10    15 1   
    23    10    18 1   
    24    11    13 2   
    25    11    16 1   
    26    11    17 1   
    27    12    14 1   
    28    15    26 1   
    29    16    25 1   
    30    18    27 1   
    31    27    29 1   
    32    27    30 1   
@<TRIPOS>SUBSTRUCTURE
     1 WMM         1 TEMP              0 ****  ****    0 ROOT
