@<TRIPOS>MOLECULE
WMR
   42    44     1     0     0
SMALL
bcc


@<TRIPOS>ATOM
      1 C8           0.0000     0.0000     0.0000 ca         1 WMR      -0.402200
      2 C7           1.4130     0.0000     0.0000 ca         1 WMR       0.056700
      3 C6           2.0350     0.0000     1.2040 ca         1 WMR      -0.250600
      4 C5           1.2610    -0.0270     2.3720 ca         1 WMR       0.428600
      5 C12         -0.7130    -0.0180     1.2080 ca         1 WMR       0.281800
      6 C9          -0.9970     0.0090    -1.0720 cc         1 WMR       0.501800
      7 C15          2.0580    -0.0220    -1.3540 c3         1 WMR       0.018900
      8 C18          3.5260     0.0510     1.4220 c3         1 WMR       0.154000
      9 C16          3.4980     0.4710    -1.3490 c3         1 WMR       0.054100
     10 C19          4.1320     0.2320    -2.7200 c3         1 WMR       0.009900
     11 C20          3.5340     1.9630    -1.0120 c3         1 WMR       0.009900
     12 C1           3.1420    -2.9670     5.9230 c3         1 WMR       0.006900
     13 C4           1.9670    -0.0470     3.7040 c3         1 WMR      -0.094700
     14 C2           2.9120    -1.5170     5.4890 c3         1 WMR      -0.028400
     15 C3           2.1960    -1.4970     4.1370 c3         1 WMR      -0.028400
     16 N13         -0.0480    -0.0350     2.3570 nb         1 WMR      -0.582000
     17 N10         -2.1770     0.0030    -0.5080 nd         1 WMR      -0.674100
     18 N11         -2.0420    -0.0120     0.8840 na         1 WMR       0.335200
     19 N14         -0.7360     0.0210    -2.4440 nv         1 WMR      -0.546800
     20 S17          4.4020    -0.4710    -0.0790 ss         1 WMR      -0.398200
     21 H151         1.4810     0.6060    -2.0210 hc         1 WMR       0.043200
     22 H152         2.0440    -1.0390    -1.7260 hc         1 WMR       0.043200
     23 H181         3.7900    -0.6120     2.2370 h1         1 WMR       0.060200
     24 H182         3.8160     1.0650     1.6690 h1         1 WMR       0.060200
     25 H41C         1.3570     0.4580     4.4440 hc         1 WMR       0.030700
     26 H42C         2.9210     0.4590     3.6160 hc         1 WMR       0.030700
     27 H11         -2.7990    -0.0190     1.5400 hn         1 WMR       0.155700
     28 H141        -0.2260     0.7810    -2.8490 hn         1 WMR       0.275800
     29 H142        -1.1160    -0.6950    -3.0310 hn         1 WMR       0.275800
     30 H191         5.1430     0.6230    -2.7230 hc         1 WMR       0.016200
     31 H192         3.5480     0.7360    -3.4810 hc         1 WMR       0.016200
     32 H193         4.1560    -0.8310    -2.9270 hc         1 WMR       0.016200
     33 H201         4.5610     2.2750    -0.8670 hc         1 WMR       0.016200
     34 H202         2.9700     2.1430    -0.1050 hc         1 WMR       0.016200
     35 H203         3.0970     2.5270    -1.8270 hc         1 WMR       0.016200
     36 H11C         3.6530    -2.9820     6.8780 hc         1 WMR       0.001367
     37 H12C         3.7480    -3.4740     5.1820 hc         1 WMR       0.001367
     38 H13C         2.1880    -3.4720     6.0160 hc         1 WMR       0.001367
     39 H21C         3.8660    -1.0110     5.4000 hc         1 WMR       0.012200
     40 H22C         2.3030    -1.0110     6.2280 hc         1 WMR       0.012200
     41 H31C         2.8060    -2.0020     3.3980 hc         1 WMR       0.023200
     42 H32C         1.2420    -2.0020     4.2260 hc         1 WMR       0.023200
@<TRIPOS>BOND
     1     1     2 ar  
     2     1     5 ar  
     3     1     6 1   
     4     2     3 ar  
     5     2     7 1   
     6     3     4 ar  
     7     3     8 1   
     8     4    13 1   
     9     4    16 ar  
    10     5    16 ar  
    11     5    18 1   
    12     6    17 2   
    13     6    19 1   
    14     7     9 1   
    15     7    21 1   
    16     7    22 1   
    17     8    20 1   
    18     8    23 1   
    19     8    24 1   
    20     9    10 1   
    21     9    11 1   
    22     9    20 1   
    23    10    30 1   
    24    10    31 1   
    25    10    32 1   
    26    11    33 1   
    27    11    34 1   
    28    11    35 1   
    29    12    14 1   
    30    12    36 1   
    31    12    37 1   
    32    12    38 1   
    33    13    15 1   
    34    13    25 1   
    35    13    26 1   
    36    14    15 1   
    37    14    39 1   
    38    14    40 1   
    39    15    41 1   
    40    15    42 1   
    41    17    18 1   
    42    18    27 1   
    43    19    28 1   
    44    19    29 1   
@<TRIPOS>SUBSTRUCTURE
     1 WMR         1 TEMP              0 ****  ****    0 ROOT
