@<TRIPOS>MOLECULE
WN6
   38    38     1     0     0
SMALL
bcc


@<TRIPOS>ATOM
      1 N2           0.0000     0.0000     0.0000 nz         1 WN6       0.106400
      2 C12          1.4690     0.0000     0.0000 c3         1 WN6      -0.135700
      3 C13          1.9790     1.2490    -0.7220 c3         1 WN6       0.053900
      4 P1           2.0770     0.0000     1.7180 p5         1 WN6       0.290400
      5 O4           1.5410     1.3140     2.4770 o          1 WN6      -0.542500
      6 C14          1.4700    -1.4890     2.5780 c3         1 WN6      -0.003600
      7 C15          2.0810    -1.5530     3.9790 c3         1 WN6      -0.117700
      8 C16          1.3060    -2.5650     4.8270 c3         1 WN6       0.013600
      9 C17          1.8370    -2.5390     6.2610 c3         1 WN6      -0.037100
     10 C18          1.0750    -3.5360     7.0970 ca         1 WN6      -0.040300
     11 C19          1.5240    -4.8390     7.2000 ca         1 WN6      -0.107000
     12 C20          0.8250    -5.7530     7.9650 ca         1 WN6      -0.116500
     13 C21         -0.3240    -5.3650     8.6260 ca         1 WN6      -0.142000
     14 C22         -0.7740    -4.0620     8.5240 ca         1 WN6      -0.116500
     15 C23         -0.0720    -3.1460     7.7640 ca         1 WN6      -0.107000
     16 C24          3.5230    -1.9790     3.8800 c          1 WN6       0.989600
     17 O5           4.2630    -2.1050     4.9920 o          1 WN6      -0.886800
     18 O6           4.0110    -2.2080     2.7990 o          1 WN6      -0.886800
     19 O7           3.5570     0.0000     1.7170 o          1 WN6      -0.542500
     20 H13         -0.3340    -0.8610    -0.3870 hn         1 WN6       0.191467
     21 H14          1.8300    -0.8850    -0.5110 hx         1 WN6       0.084700
     22 H15          2.9110     1.5700    -0.2730 hc         1 WN6       0.012700
     23 H16          2.1420     1.0210    -1.7680 hc         1 WN6       0.012700
     24 H17          1.2450     2.0410    -0.6350 hc         1 WN6       0.012700
     25 H19          1.7560    -2.3710     2.0180 hc         1 WN6      -0.002800
     26 H20          0.3900    -1.4460     2.6570 hc         1 WN6      -0.002800
     27 H21          2.0250    -0.5760     4.4430 hc         1 WN6       0.049700
     28 H22          1.4350    -3.5580     4.4120 hc         1 WN6      -0.015800
     29 H23          0.2540    -2.3070     4.8260 hc         1 WN6      -0.015800
     30 H24          2.8890    -2.7960     6.2630 hc         1 WN6       0.068700
     31 H25          1.7070    -1.5470     6.6760 hc         1 WN6       0.068700
     32 H26          2.4250    -5.1430     6.6810 ha         1 WN6       0.112500
     33 H27          1.1780    -6.7740     8.0460 ha         1 WN6       0.086500
     34 H28         -0.8730    -6.0820     9.2240 ha         1 WN6       0.085000
     35 H29         -1.6740    -3.7570     9.0450 ha         1 WN6       0.086500
     36 H30         -0.4250    -2.1250     7.6830 ha         1 WN6       0.112500
     37 H2          -0.3340     0.7650    -0.5520 hn         1 WN6       0.191467
     38 H231        -0.3340     0.0950     0.9390 hn         1 WN6       0.191467
@<TRIPOS>BOND
     1     1     2 1   
     2     1    20 1   
     3     1    37 1   
     4     1    38 1   
     5     2     3 1   
     6     2     4 1   
     7     2    21 1   
     8     3    22 1   
     9     3    23 1   
    10     3    24 1   
    11     4     5 1   
    12     4     6 1   
    13     4    19 1   
    14     6     7 1   
    15     6    25 1   
    16     6    26 1   
    17     7     8 1   
    18     7    16 1   
    19     7    27 1   
    20     8     9 1   
    21     8    28 1   
    22     8    29 1   
    23     9    10 1   
    24     9    30 1   
    25     9    31 1   
    26    10    11 ar  
    27    10    15 ar  
    28    11    12 ar  
    29    11    32 1   
    30    12    13 ar  
    31    12    33 1   
    32    13    14 ar  
    33    13    34 1   
    34    14    15 ar  
    35    14    35 1   
    36    15    36 1   
    37    16    17 1   
    38    16    18 1   
@<TRIPOS>SUBSTRUCTURE
     1 WN6         1 TEMP              0 ****  ****    0 ROOT
