@<TRIPOS>MOLECULE
molecule
   38    38     1     0     0
SMALL
bcc


@<TRIPOS>ATOM
      1 N2           0.0000     0.0000     0.0000 nz         1 WN6      -0.777600
      2 C12          1.4690     0.0000     0.0000 c3         1 WN6      -0.045700
      3 C13          1.9790     1.2490    -0.7220 c3         1 WN6      -0.078100
      4 P1           2.0770     0.0000     1.7180 p5         1 WN6       0.833400
      5 O4           1.5410     1.3140     2.4770 o          1 WN6      -0.709500
      6 C14          1.4700    -1.4890     2.5780 c3         1 WN6      -0.219600
      7 C15          2.0810    -1.5530     3.9790 c3         1 WN6      -0.139700
      8 C16          1.3060    -2.5650     4.8270 c3         1 WN6      -0.038400
      9 C17          1.8370    -2.5390     6.2610 c3         1 WN6      -0.062100
     10 C18          1.0750    -3.5360     7.0970 ca         1 WN6      -0.047300
     11 C19          1.5240    -4.8390     7.2000 ca         1 WN6      -0.132000
     12 C20          0.8250    -5.7530     7.9650 ca         1 WN6      -0.140500
     13 C21         -0.3240    -5.3650     8.6260 ca         1 WN6      -0.162000
     14 C22         -0.7740    -4.0620     8.5240 ca         1 WN6      -0.140500
     15 C23         -0.0720    -3.1460     7.7640 ca         1 WN6      -0.132000
     16 C24          3.5230    -1.9790     3.8800 c          1 WN6       0.901600
     17 O5           4.2630    -2.1050     4.9920 o          1 WN6      -0.839300
     18 O6           4.0110    -2.2080     2.7990 o          1 WN6      -0.839300
     19 O7           3.5570     0.0000     1.7170 o          1 WN6      -0.709500
     20 H13         -0.3340    -0.8610    -0.3870 hn         1 WN6       0.430133
     21 H14          1.8300    -0.8850    -0.5110 hx         1 WN6       0.104700
     22 H15          2.9110     1.5700    -0.2730 hc         1 WN6       0.058033
     23 H16          2.1420     1.0210    -1.7680 hc         1 WN6       0.058033
     24 H17          1.2450     2.0410    -0.6350 hc         1 WN6       0.058033
     25 H19          1.7560    -2.3710     2.0180 hc         1 WN6       0.020200
     26 H20          0.3900    -1.4460     2.6570 hc         1 WN6       0.020200
     27 H21          2.0250    -0.5760     4.4430 hc         1 WN6       0.068700
     28 H22          1.4350    -3.5580     4.4120 hc         1 WN6       0.010200
     29 H23          0.2540    -2.3070     4.8260 hc         1 WN6       0.010200
     30 H24          2.8890    -2.7960     6.2630 hc         1 WN6       0.090700
     31 H25          1.7070    -1.5470     6.6760 hc         1 WN6       0.090700
     32 H26          2.4250    -5.1430     6.6810 ha         1 WN6       0.136500
     33 H27          1.1780    -6.7740     8.0460 ha         1 WN6       0.110000
     34 H28         -0.8730    -6.0820     9.2240 ha         1 WN6       0.106000
     35 H29         -1.6740    -3.7570     9.0450 ha         1 WN6       0.110000
     36 H30         -0.4250    -2.1250     7.6830 ha         1 WN6       0.136500
     37 H2          -0.3340     0.7650    -0.5520 hn         1 WN6       0.430133
     38 H231        -0.3340     0.0950     0.9390 hn         1 WN6       0.430133
@<TRIPOS>BOND
     1    18    16 1
     2    17    16 1
     3    16     7 1
     4    14    15 ar
     5    14    13 ar
     6    15    10 ar
     7    13    12 ar
     8     8     7 1
     9     8     9 1
    10     7     6 1
    11    10     9 1
    12    10    11 ar
    13    19     4 1
    14    12    11 ar
    15     6     4 1
    16     4     5 1
    17     4     2 1
    18     1     2 1
    19     2     3 1
    20     1    20 1
    21     2    21 1
    22     3    22 1
    23     3    23 1
    24     3    24 1
    25     6    25 1
    26     6    26 1
    27     7    27 1
    28     8    28 1
    29     8    29 1
    30     9    30 1
    31     9    31 1
    32    11    32 1
    33    12    33 1
    34    13    34 1
    35    14    35 1
    36    15    36 1
    37     1    37 1
    38    38     1 1
@<TRIPOS>SUBSTRUCTURE
     1 WN6         1 TEMP              0 ****  ****    0 ROOT
