@<TRIPOS>MOLECULE
molecule
   48    51     1     0     0
SMALL
bcc


@<TRIPOS>ATOM
      1 C3           0.0000     0.0000     0.0000 ca         1 WNN      -0.145000
      2 C2           1.3890     0.0000     0.0000 ca         1 WNN      -0.095000
      3 C18          7.8290     1.2330     6.3660 ca         1 WNN      -0.090000
      4 C4          -0.7010     0.0010     1.1870 ca         1 WNN      -0.055000
      5 C17          6.4800     1.2180     6.6720 ca         1 WNN      -0.148000
      6 C1           2.0940     0.0000     1.1820 ca         1 WNN      -0.115000
      7 C19          8.5140     0.0450     6.2000 ca         1 WNN      -0.210000
      8 C21          6.4960    -1.1770     6.6510 ca         1 WNN      -0.140000
      9 C28         13.8560    -7.5650     4.4050 cc         1 WNN       0.454400
     10 C5          -0.0090    -0.0030     2.3940 ca         1 WNN      -0.195600
     11 C16          5.8150     0.0130     6.8150 ca         1 WNN      -0.086300
     12 C6           1.4060     0.0020     2.3990 ca         1 WNN       0.185400
     13 C20          7.8500    -1.1640     6.3480 ca         1 WNN       0.142100
     14 C26         12.7010    -5.7890     4.8440 cd         1 WNN       0.806300
     15 C10         -0.7070    -0.0020     3.6910 c          1 WNN       0.707100
     16 C8           1.4220     0.0040     4.7150 cd         1 WNN       0.462900
     17 C12          2.2160    -0.0030     5.9680 c          1 WNN       0.586800
     18 C15          4.3450     0.0010     7.1520 c3         1 WNN       0.161300
     19 C23          9.9140    -2.2460     5.8750 c3         1 WNN       0.151400
     20 C24         10.4950    -3.6520     5.7310 c3         1 WNN      -0.015300
     21 N27         13.8880    -6.2580     4.4500 nd         1 WNN      -0.752000
     22 N30         11.8950    -6.8040     5.0540 nc         1 WNN      -0.548800
     23 N7           2.0590     0.0020     3.5770 nc         1 WNN      -0.641100
     24 N29         12.6270    -7.9680     4.7700 na         1 WNN      -0.178400
     25 N9           0.0560    -0.0070     4.8080 ns         1 WNN      -0.450400
     26 N14          3.5620     0.0070     5.9140 ns         1 WNN      -0.549900
     27 O11         -1.9220     0.0040     3.7540 o          1 WNN      -0.614500
     28 O13          1.6510    -0.0170     7.0440 o          1 WNN      -0.606100
     29 O22          8.5220    -2.3340     6.1860 os         1 WNN      -0.325900
     30 S25         12.2620    -3.5400     5.3360 ss         1 WNN      -0.349400
     31 H1          -0.5370    -0.0000    -0.9410 ha         1 WNN       0.138000
     32 H2           1.9240    -0.0010    -0.9420 ha         1 WNN       0.137000
     33 H3           8.3470     2.1770     6.2520 ha         1 WNN       0.136000
     34 H4          -1.7840     0.0010     1.1800 ha         1 WNN       0.157000
     35 H5           5.9440     2.1500     6.8020 ha         1 WNN       0.138000
     36 H6           3.1770     0.0000     1.1690 ha         1 WNN       0.149000
     37 H7           9.5700     0.0580     5.9610 ha         1 WNN       0.138000
     38 H8           5.9750    -2.1200     6.7650 ha         1 WNN       0.150000
     39 H10          4.1130    -0.8900     7.7220 h1         1 WNN       0.064200
     40 H11          4.1020     0.8790     7.7380 h1         1 WNN       0.064200
     41 H12         10.0430    -1.7050     4.9450 h1         1 WNN       0.046700
     42 H13         10.4290    -1.7220     6.6710 h1         1 WNN       0.046700
     43 H14         10.3670    -4.1930     6.6610 h1         1 WNN       0.087700
     44 H15          9.9800    -4.1760     4.9350 h1         1 WNN       0.087700
     45 H17         -0.3810    -0.0180     5.7090 hn         1 WNN       0.361500
     46 H18          4.0260     0.0060     5.0270 hn         1 WNN       0.346500
     47 H16         12.3000    -8.9120     4.8320 hn         1 WNN       0.332700
     48 H9          14.6770    -8.2120     4.1180 h5         1 WNN       0.074100
@<TRIPOS>BOND
     1     2     1 ar
     2     2     6 ar
     3     1     4 ar
     4     6    12 ar
     5     4    10 ar
     6    12    10 ar
     7    12    23 1
     8    10    15 1
     9    23    16 2
    10    15    27 2
    11    15    25 1
    12    16    25 1
    13    16    17 1
    14    26    17 1
    15    26    18 1
    16    17    28 2
    17    18    11 1
    18    11     5 ar
    19    11     8 ar
    20     5     3 ar
    21     8    13 ar
    22     3     7 ar
    23    13     7 ar
    24    13    29 1
    25    29    19 1
    26    19    20 1
    27    30    20 1
    28    30    14 1
    29    22    14 2
    30    22    24 1
    31    14    21 1
    32    24     9 1
    33    21     9 2
    34     1    31 1
    35     2    32 1
    36     3    33 1
    37     4    34 1
    38     5    35 1
    39     6    36 1
    40     7    37 1
    41     8    38 1
    42     9    48 1
    43    18    39 1
    44    18    40 1
    45    19    41 1
    46    19    42 1
    47    20    43 1
    48    20    44 1
    49    25    45 1
    50    26    46 1
    51    24    47 1
@<TRIPOS>SUBSTRUCTURE
     1 WNN         1 TEMP              0 ****  ****    0 ROOT
