@<TRIPOS>MOLECULE
WOC
   18    17     1     0     0
SMALL
bcc


@<TRIPOS>ATOM
      1 OAG         0.8100    0.9580   -0.5450 o         1 WOC     -0.891300
      2 CAJ         1.3140   -0.1500   -0.1760 c         1 WOC      0.897600
      3 CAK         2.0770   -0.2300    1.1490 c3        1 WOC     -0.147400
      4 CAL         3.5800    0.0080    1.0380 c3        1 WOC     -0.137000
      5 OAM         1.1490   -1.2040   -0.8690 o         1 WOC     -0.891300
      6 CAN         4.2790   -0.0850    2.4220 c         1 WOC      0.908600
      7 OAO         5.5360    0.1090    2.4740 o         1 WOC     -0.879800
      8 OAP         3.6100   -0.3470    3.4650 o         1 WOC     -0.879800
      9 CAQ         4.1990   -1.0420    0.1300 c3        1 WOC     -0.060100
     10 CAR         3.8390    1.3940    0.4710 c3        1 WOC     -0.060100
     11 HAK         1.6540    0.5300    1.8550 hc        1 WOC      0.026700
     12 HAKA        1.9150   -1.2420    1.5990 hc        1 WOC      0.026700
     13 HAQ         3.6860   -1.0400   -0.8630 hc        1 WOC      0.014533
     14 HAQA        5.2880   -0.8400   -0.0050 hc        1 WOC      0.014533
     15 HAQB        4.0800   -2.0540    0.5850 hc        1 WOC      0.014533
     16 HAR         3.4520    2.1690    1.1750 hc        1 WOC      0.014533
     17 HARA        4.9360    1.5540    0.3360 hc        1 WOC      0.014533
     18 HARB        3.3140    1.5130   -0.5070 hc        1 WOC      0.014533
@<TRIPOS>BOND
     1    1    2 1   
     2    2    3 1   
     3    2    5 1   
     4    3    4 1   
     5    3   11 1   
     6    3   12 1   
     7    4    6 1   
     8    4    9 1   
     9    4   10 1   
    10    6    7 1   
    11    6    8 1   
    12    9   13 1   
    13    9   14 1   
    14    9   15 1   
    15   10   16 1   
    16   10   17 1   
    17   10   18 1   
@<TRIPOS>SUBSTRUCTURE
     1 WOC         1 TEMP              0 ****  ****    0 ROOT
