@<TRIPOS>MOLECULE
molecule
   18    17     1     0     0
SMALL
bcc


@<TRIPOS>ATOM
      1 OAG          0.0000     0.0000     0.0000 o          1 WOC      -0.891300
      2 CAJ          1.3420     0.0000     0.0000 c          1 WOC       0.888600
      3 CAK          2.0950     0.0000     1.3060 c3         1 WOC      -0.148400
      4 CAL          3.5990    -0.0000     1.0270 c3         1 WOC      -0.136000
      5 OAM          1.9460     0.0000    -1.0460 o          1 WOC      -0.891300
      6 CAN          4.3520    -0.0000     2.3320 c          1 WOC       0.899600
      7 OAO          5.6950    -0.0000     2.3330 o          1 WOC      -0.886300
      8 OAP          3.7470     0.0000     3.3780 o          1 WOC      -0.886300
      9 CAQ          3.9690    -1.2490     0.2240 c3         1 WOC      -0.060100
     10 CAR          3.9690     1.2490     0.2240 c3         1 WOC      -0.060100
     11 HAK          1.8330     0.8850     1.8740 hc         1 WOC       0.033700
     12 HAKA         1.8330    -0.8850     1.8740 hc         1 WOC       0.033700
     13 HAQ          5.0200    -1.4720     0.3680 hc         1 WOC       0.017533
     14 HAQA         3.7780    -1.0720    -0.8280 hc         1 WOC       0.017533
     15 HAQB         3.3720    -2.0870     0.5640 hc         1 WOC       0.017533
     16 HAR          3.7780     1.0730    -0.8270 hc         1 WOC       0.017533
     17 HARA         5.0200     1.4720     0.3670 hc         1 WOC       0.017533
     18 HARB         3.3730     2.0870     0.5640 hc         1 WOC       0.017533
@<TRIPOS>BOND
     1     2     1 1
     2     3     2 1
     3     5     2 1
     4     4     3 1
     5     3    11 1
     6     3    12 1
     7     6     4 1
     8     9     4 1
     9     4    10 1
    10     8     6 1
    11     6     7 1
    12     9    13 1
    13     9    14 1
    14     9    15 1
    15    10    16 1
    16    10    17 1
    17    10    18 1
@<TRIPOS>SUBSTRUCTURE
     1 WOC         1 TEMP              0 ****  ****    0 ROOT
