@<TRIPOS>MOLECULE
WOE
   26    27     1     0     0
SMALL
bcc


@<TRIPOS>ATOM
      1 C1           0.0000     0.0000     0.0000 c3         1 WOE       0.231700
      2 O2           1.4300     0.0000     0.0000 os         1 WOE      -0.262900
      3 C3           2.0460     0.0000     1.2100 ca         1 WOE       0.196100
      4 C4           1.2930    -0.0000     2.3740 ca         1 WOE      -0.225000
      5 C5           1.9220     0.0010     3.6050 ca         1 WOE      -0.035000
      6 C6           3.3030     0.0010     3.6840 ca         1 WOE      -0.154000
      7 C7           4.0650     0.0000     2.5340 ca         1 WOE      -0.043000
      8 C8           3.4430    -0.0050     1.2870 cp         1 WOE      -0.213500
      9 C9           4.2560    -0.0120     0.0480 cp         1 WOE       0.506800
     10 C10          5.6510    -0.0170     0.1160 ca         1 WOE      -0.351600
     11 C11          6.3690    -0.0230    -1.0690 ca         1 WOE       0.441300
     12 Cl1          8.1050    -0.0310    -1.0420 cl         1 WOE      -0.081000
     13 N13          5.7160    -0.0240    -2.2220 nb         1 WOE      -0.627000
     14 C14          4.3910    -0.0180    -2.2550 ca         1 WOE       0.722900
     15 N15          3.7490    -0.0180    -3.4810 nv         1 WOE      -0.636500
     16 N16          3.6680    -0.0180    -1.1470 nb         1 WOE      -0.604000
     17 H11C        -0.3610     0.8840     0.5110 h1         1 WOE      -0.001967
     18 H12C        -0.3610    -0.8850     0.5100 h1         1 WOE      -0.001967
     19 H13C        -0.3610     0.0010    -1.0210 h1         1 WOE      -0.001967
     20 H4           0.2110    -0.0010     2.3200 ha         1 WOE       0.124000
     21 H5           1.3300     0.0010     4.5120 ha         1 WOE       0.100000
     22 H6           3.7890     0.0030     4.6520 ha         1 WOE       0.108000
     23 H7           5.1460    -0.0010     2.6000 ha         1 WOE       0.110000
     24 H10          6.1470    -0.2470     1.0510 ha         1 WOE       0.138000
     25 H151         3.5250    -0.8850    -3.9280 hn         1 WOE       0.280300
     26 H152         3.5310     0.8480    -3.9310 hn         1 WOE       0.280300
@<TRIPOS>BOND
     1     1     2 1   
     2     1    17 1   
     3     1    18 1   
     4     1    19 1   
     5     2     3 1   
     6     3     4 ar  
     7     3     8 ar  
     8     4     5 ar  
     9     4    20 1   
    10     5     6 ar  
    11     5    21 1   
    12     6     7 ar  
    13     6    22 1   
    14     7     8 ar  
    15     7    23 1   
    16     8     9 1   
    17     9    10 ar  
    18     9    16 ar  
    19    10    11 ar  
    20    10    24 1   
    21    11    12 1   
    22    11    13 ar  
    23    13    14 ar  
    24    14    15 1   
    25    14    16 ar  
    26    15    25 1   
    27    15    26 1   
@<TRIPOS>SUBSTRUCTURE
     1 WOE         1 TEMP              0 ****  ****    0 ROOT
