@<TRIPOS>MOLECULE
molecule
   26    27     1     0     0
SMALL
bcc


@<TRIPOS>ATOM
      1 C1           0.0000     0.0000     0.0000 c3         1 WOE       0.120700
      2 O2           1.4300     0.0000     0.0000 os         1 WOE      -0.279900
      3 C3           2.0460     0.0000     1.2100 ca         1 WOE       0.187100
      4 C4           1.2930    -0.0000     2.3740 ca         1 WOE      -0.235000
      5 C5           1.9220     0.0010     3.6050 ca         1 WOE      -0.068000
      6 C6           3.3030     0.0010     3.6840 ca         1 WOE      -0.177000
      7 C7           4.0650     0.0000     2.5340 ca         1 WOE      -0.067000
      8 C8           3.4430    -0.0050     1.2870 cp         1 WOE      -0.197500
      9 C9           4.2560    -0.0120     0.0480 cp         1 WOE       0.550800
     10 C10          5.6510    -0.0170     0.1160 ca         1 WOE      -0.379600
     11 C11          6.3690    -0.0230    -1.0690 ca         1 WOE       0.566300
     12 Cl1          8.1050    -0.0310    -1.0420 cl         1 WOE      -0.154000
     13 N13          5.7160    -0.0240    -2.2220 nb         1 WOE      -0.758000
     14 C14          4.3910    -0.0180    -2.2550 ca         1 WOE       0.949900
     15 N15          3.7490    -0.0180    -3.4810 nv         1 WOE      -1.055500
     16 N16          3.6680    -0.0180    -1.1470 nb         1 WOE      -0.722000
     17 H11C        -0.3610     0.8840     0.5110 h1         1 WOE       0.042033
     18 H12C        -0.3610    -0.8850     0.5100 h1         1 WOE       0.042033
     19 H13C        -0.3610     0.0010    -1.0210 h1         1 WOE       0.042033
     20 H4           0.2110    -0.0010     2.3200 ha         1 WOE       0.140000
     21 H5           1.3300     0.0010     4.5120 ha         1 WOE       0.132000
     22 H6           3.7890     0.0030     4.6520 ha         1 WOE       0.135000
     23 H7           5.1460    -0.0010     2.6000 ha         1 WOE       0.139000
     24 H10          6.1470    -0.2470     1.0510 ha         1 WOE       0.156000
     25 H151         3.5250    -0.8850    -3.9280 hn         1 WOE       0.446300
     26 H152         3.5310     0.8480    -3.9310 hn         1 WOE       0.446300
@<TRIPOS>BOND
     1     1     2 1
     2     2     3 1
     3     3     4 ar
     4     3     8 ar
     5     4     5 ar
     6     5     6 ar
     7     6     7 ar
     8     7     8 ar
     9     8     9 1
    10     9    10 ar
    11     9    16 ar
    12    10    11 ar
    13    11    12 1
    14    11    13 ar
    15    13    14 ar
    16    14    15 1
    17    14    16 ar
    18     1    17 1
    19     1    18 1
    20     1    19 1
    21     4    20 1
    22     5    21 1
    23     6    22 1
    24     7    23 1
    25    10    24 1
    26    15    25 1
    27    15    26 1
@<TRIPOS>SUBSTRUCTURE
     1 WOE         1 TEMP              0 ****  ****    0 ROOT
