@<TRIPOS>MOLECULE
molecule
   24    24     1     0     0
SMALL
bcc


@<TRIPOS>ATOM
      1 C1           0.0000     0.0000     0.0000 c3         1 WOO       0.343900
      2 O1          -0.4760    -0.0560    -1.3460 oh         1 WOO      -0.585800
      3 C2           1.5310     0.0000     0.0000 c3         1 WOO       0.117100
      4 O2           2.0090     1.1670    -0.6710 oh         1 WOO      -0.585800
      5 C3           2.0340     0.0000     1.4470 c3         1 WOO       0.114100
      6 O3           1.6110     1.1990     2.1000 oh         1 WOO      -0.581800
      7 C4           1.4530    -1.2130     2.1790 c3         1 WOO       0.101100
      8 O4           1.8580    -1.1850     3.5490 oh         1 WOO      -0.590800
      9 C5          -0.0760    -1.1660     2.0940 c3         1 WOO       0.165100
     10 O5          -0.4750    -1.1370     0.7220 os         1 WOO      -0.433600
     11 C6          -0.6630    -2.4060     2.7700 c3         1 WOO       0.150400
     12 O6          -2.0880    -2.3060     2.7950 oh         1 WOO      -0.598800
     13 H1          -0.3590     0.9040     0.4770 h2         1 WOO       0.058700
     14 H2          -1.3430     0.3110    -1.3880 ho         1 WOO       0.417000
     15 H3           1.8910    -0.8880    -0.5060 h1         1 WOO       0.054700
     16 H4           2.6020     0.9130    -1.3600 ho         1 WOO       0.406000
     17 H5           3.1160    -0.0600     1.4530 h1         1 WOO       0.039700
     18 H6           2.3660     1.6690     2.4150 ho         1 WOO       0.411000
     19 H7           1.8110    -2.1210     1.7090 h1         1 WOO       0.045700
     20 H8           2.6200    -1.7280     3.6620 ho         1 WOO       0.402000
     21 H9          -0.4360    -0.2730     2.5920 h1         1 WOO       0.081700
     22 H10         -0.2880    -2.4760     3.7840 h1         1 WOO       0.033700
     23 H11         -0.3730    -3.2910     2.2160 h1         1 WOO       0.033700
     24 H12         -2.4470    -3.0450     3.2570 ho         1 WOO       0.402000
@<TRIPOS>BOND
     1    12    11 1
     2    11     9 1
     3     8     7 1
     4     9     7 1
     5     9    10 1
     6     7     5 1
     7    10     1 1
     8     5     3 1
     9     5     6 1
    10     1     2 1
    11     1     3 1
    12     3     4 1
    13     1    13 1
    14     2    14 1
    15     3    15 1
    16     4    16 1
    17     5    17 1
    18     6    18 1
    19     7    19 1
    20     8    20 1
    21     9    21 1
    22    11    22 1
    23    11    23 1
    24    12    24 1
@<TRIPOS>SUBSTRUCTURE
     1 WOO         1 TEMP              0 ****  ****    0 ROOT
