@<TRIPOS>MOLECULE
WOO
   24    24     1     0     0
SMALL
bcc


@<TRIPOS>ATOM
      1 C1          0.1760    0.0250    0.0300 c3        1 WOO      0.313900
      2 O1         -0.2430   -0.1270   -1.3030 oh        1 WOO     -0.613800
      3 C2          1.7180   -0.0320    0.0640 c3        1 WOO      0.082100
      4 O2          2.2650    1.1750   -0.4380 oh        1 WOO     -0.606800
      5 C3          2.2040   -0.1660    1.5140 c3        1 WOO      0.112100
      6 O3          1.9120    0.9980    2.2720 oh        1 WOO     -0.613800
      7 C4          1.4800   -1.3360    2.2040 c3        1 WOO      0.121100
      8 O4          1.8580   -1.4300    3.5590 oh        1 WOO     -0.586800
      9 C5         -0.0450   -1.1780    2.0660 c3        1 WOO      0.118100
     10 O5         -0.4010   -1.0950    0.6830 os        1 WOO     -0.449600
     11 C6         -0.7780   -2.3990    2.6240 c3        1 WOO      0.130400
     12 O6         -2.0080   -1.9320    3.1540 oh        1 WOO     -0.599800
     13 H1         -0.2040    0.9910    0.4650 h2        1 WOO      0.063700
     14 H2         -1.0790   -0.6150   -1.3020 ho        1 WOO      0.439000
     15 H3          2.0760   -0.9040   -0.5470 h1        1 WOO      0.068700
     16 H4          1.8900    1.3020   -1.3190 ho        1 WOO      0.429000
     17 H5          3.3150   -0.3430    1.5230 h1        1 WOO      0.066700
     18 H6          2.2890    1.7470    1.7890 ho        1 WOO      0.433000
     19 H7          1.8150   -2.3050    1.7390 h1        1 WOO      0.087700
     20 H8          1.6860   -0.5700    3.9680 ho        1 WOO      0.424000
     21 H9         -0.3810   -0.2420    2.5960 h1        1 WOO      0.082700
     22 H10        -0.9570   -3.1510    1.8110 h1        1 WOO      0.048200
     23 H11        -0.1610   -2.8560    3.4450 h1        1 WOO      0.048200
     24 H12        -2.5270   -2.7130    3.3760 ho        1 WOO      0.404000
@<TRIPOS>BOND
     1    1    2 1   
     2    1    3 1   
     3    1   10 1   
     4    1   13 1   
     5    2   14 1   
     6    3    4 1   
     7    3    5 1   
     8    3   15 1   
     9    4   16 1   
    10    5    6 1   
    11    5    7 1   
    12    5   17 1   
    13    6   18 1   
    14    7    8 1   
    15    7    9 1   
    16    7   19 1   
    17    8   20 1   
    18    9   10 1   
    19    9   11 1   
    20    9   21 1   
    21   11   12 1   
    22   11   22 1   
    23   11   23 1   
    24   12   24 1   
@<TRIPOS>SUBSTRUCTURE
     1 WOO         1 TEMP              0 ****  ****    0 ROOT
