@<TRIPOS>MOLECULE
molecule
   59    62     1     0     0
SMALL
bcc


@<TRIPOS>ATOM
      1 C1           0.0000     0.0000     0.0000 ca         1 WOP      -0.129000
      2 C2           5.6060     5.0600     2.7330 ca         1 WOP      -0.132000
      3 C3           1.3820     0.0000     0.0000 ca         1 WOP      -0.140000
      4 C4          -0.6920    -0.0000     1.1970 ca         1 WOP      -0.140000
      5 C5           6.1330     4.8510     3.9950 ca         1 WOP      -0.122500
      6 C6           4.4940     4.3450     2.3200 ca         1 WOP      -0.122500
      7 C7           2.0730     0.0000     1.1980 ca         1 WOP      -0.109500
      8 C8          -0.0010    -0.0010     2.3940 ca         1 WOP      -0.109500
      9 C9           5.5470     3.9270     4.8460 ca         1 WOP      -0.100000
     10 C10          3.4460     4.4890     3.6880 ca         1 WOP      -0.100000
     11 C11          2.5920     4.0550    11.1050 ca         1 WOP      -0.162000
     12 C12          1.6950     3.5530    12.0380 ca         1 WOP      -0.144000
     13 C13          2.3820     6.2430    12.0790 ca         1 WOP      -0.056600
     14 C14          1.3810    -0.0000     2.3950 ca         1 WOP      -0.100300
     15 C15          4.1100     3.7550     4.6580 ca         1 WOP      -0.108300
     16 C16          2.9350     5.4000    11.1260 ca         1 WOP      -0.056300
     17 C17          1.1360     4.4040    13.0020 ca         1 WOP       0.020100
     18 C18          1.4760     5.7360    13.0230 ca         1 WOP       0.084100
     19 C20          3.0430     1.6240     5.2720 c          1 WOP       0.660100
     20 C21          3.7990     4.1020     7.9470 c          1 WOP       0.798100
     21 C22         -0.0070     5.3650    14.7170 c3         1 WOP       0.343200
     22 C23          5.4640     3.0380     9.5080 c3         1 WOP       0.090300
     23 C24          2.1350    -0.0010     3.7000 c3         1 WOP       0.161300
     24 C25          4.4930     5.2950    10.0550 c3         1 WOP       0.169300
     25 C26          3.2940     3.0450     5.7070 c3         1 WOP       0.099000
     26 N27          2.3800     1.3800     4.1240 ns         1 WOP      -0.580900
     27 N28          4.0270     3.0440     6.9760 ns         1 WOP      -0.631900
     28 N29          4.5690     4.1340     9.1810 n          1 WOP      -0.524800
     29 O30          1.7340     8.5580    11.8180 o          1 WOP      -0.816800
     30 O31          3.3580     8.1420    13.2140 o          1 WOP      -0.816800
     31 O32          3.4350     0.7010     5.9540 o          1 WOP      -0.608100
     32 O33          2.9860     4.9350     7.7350 o          1 WOP      -0.554100
     33 O34          0.2160     4.1730    14.0530 os         1 WOP      -0.365900
     34 O35          0.7720     6.3500    14.0860 os         1 WOP      -0.309900
     35 H1          -0.5250    -0.0020    -0.9480 ha         1 WOP       0.126000
     36 H3           1.9240     0.0160    -0.9380 ha         1 WOP       0.130000
     37 H4          -1.7710    -0.0260     1.1120 ha         1 WOP       0.130000
     38 H2           6.0640     5.7820     2.0680 ha         1 WOP       0.121000
     39 H5           7.0060     5.4060     4.3170 ha         1 WOP       0.127500
     40 H6           4.0820     4.5090     1.3310 ha         1 WOP       0.127500
     41 H7           3.1560    -0.0170     1.1980 ha         1 WOP       0.140000
     42 H8          -0.7410    -0.0970     3.1790 ha         1 WOP       0.140000
     43 H9           5.9590     3.7640     5.8350 ha         1 WOP       0.127000
     44 H10          2.4540     4.0550     3.6580 ha         1 WOP       0.127000
     45 H11          3.0240     3.3970    10.3610 ha         1 WOP       0.130000
     46 H12          1.4270     2.5030    12.0220 ha         1 WOP       0.116000
     47 H241         1.5940    -0.5930     4.4290 h1         1 WOP       0.059200
     48 H242         3.1190    -0.4260     3.5490 h1         1 WOP       0.059200
     49 H26          2.3470     3.5560     5.8370 h1         1 WOP       0.107700
     50 H251         5.3630     5.5240    10.6590 h1         1 WOP       0.065200
     51 H252         4.4210     6.0070     9.2420 h1         1 WOP       0.065200
     52 H27          2.0050     2.1400     3.5910 hn         1 WOP       0.320500
     53 H28          4.6630     2.3000     7.1860 hn         1 WOP       0.329500
     54 H221         0.5060     5.3610    15.6710 h2         1 WOP       0.032700
     55 H222        -1.0700     5.5180    14.8590 h2         1 WOP       0.032700
     56 H231         5.8150     3.1490    10.5260 h1         1 WOP       0.031700
     57 H232         6.3100     3.0480     8.8310 h1         1 WOP       0.031700
     58 H233         4.9350     2.0980     9.4090 h1         1 WOP       0.031700
     59 C19          2.4970     7.7350    12.3900 c          1 WOP       0.908200
@<TRIPOS>BOND
     1     1     3 ar
     2     1     4 ar
     3     2     5 ar
     4     2     6 ar
     5     3     7 ar
     6     4     8 ar
     7     5     9 ar
     8     6    10 ar
     9     7    14 ar
    10     8    14 ar
    11     9    15 ar
    12    10    15 ar
    13    11    12 ar
    14    11    16 ar
    15    12    17 ar
    16    13    16 ar
    17    13    18 ar
    18    13    59 1
    19    14    23 1
    20    15    25 1
    21    16    24 1
    22    17    18 ar
    23    17    33 1
    24    18    34 1
    25    59    29 1
    26    59    30 1
    27    19    25 1
    28    19    26 1
    29    19    31 2
    30    20    27 1
    31    20    28 1
    32    20    32 2
    33    21    33 1
    34    21    34 1
    35    22    28 1
    36    23    26 1
    37    24    28 1
    38    25    27 1
    39     1    35 1
    40     3    36 1
    41     4    37 1
    42     2    38 1
    43     5    39 1
    44     6    40 1
    45     7    41 1
    46     8    42 1
    47     9    43 1
    48    10    44 1
    49    11    45 1
    50    12    46 1
    51    23    47 1
    52    23    48 1
    53    25    49 1
    54    24    50 1
    55    24    51 1
    56    26    52 1
    57    27    53 1
    58    21    54 1
    59    21    55 1
    60    22    56 1
    61    22    57 1
    62    22    58 1
@<TRIPOS>SUBSTRUCTURE
     1 WOP         1 TEMP              0 ****  ****    0 ROOT
