@<TRIPOS>MOLECULE
WOP
   59    62     1     0     0
SMALL
bcc


@<TRIPOS>ATOM
      1 C1         -0.5210   -0.3690    2.1110 ca        1 WOP     -0.134000
      2 C2          7.5390    4.7560    2.6860 ca        1 WOP     -0.125000
      3 C3          0.8430   -0.1380    1.9290 ca        1 WOP     -0.138000
      4 C4         -1.0800   -0.2670    3.3840 ca        1 WOP     -0.138000
      5 C5          7.6040    3.7520    3.6520 ca        1 WOP     -0.139500
      6 C6          6.3420    5.4400    2.4740 ca        1 WOP     -0.139500
      7 C7          1.6470    0.1910    3.0180 ca        1 WOP     -0.115500
      8 C8         -0.2780    0.0650    4.4760 ca        1 WOP     -0.115500
      9 C9          6.4760    3.4350    4.4090 ca        1 WOP     -0.098000
     10 C10         5.2130    5.1270    3.2280 ca        1 WOP     -0.098000
     11 C11         1.0340    3.8450    9.6500 ca        1 WOP     -0.130000
     12 C12         0.5470    2.8920   10.5600 ca        1 WOP     -0.151000
     13 C13         2.0390    5.2180   11.4290 ca        1 WOP     -0.061600
     14 C14         1.0890    0.2910    4.2970 ca        1 WOP     -0.108300
     15 C15         5.2760    4.1220    4.2000 ca        1 WOP     -0.098300
     16 C16         1.7520    4.9680   10.0660 ca        1 WOP     -0.118300
     17 C17         0.8230    3.1350   11.8910 ca        1 WOP      0.042100
     18 C18         1.5520    4.2740   12.3160 ca        1 WOP      0.058100
     19 C20         3.6800    2.3090    4.9330 c         1 WOP      0.654100
     20 C21         3.1350    4.8260    7.0730 c         1 WOP      0.753100
     21 C22         0.9900    3.0540   14.1570 c3        1 WOP      0.319200
     22 C23         4.6180    5.4740    8.9280 c3        1 WOP      0.031300
     23 C24         1.9730    0.6160    5.4710 c3        1 WOP      0.138300
     24 C25         2.1990    5.9610    9.0270 c3        1 WOP      0.131300
     25 C26         4.0520    3.8170    5.0250 c3        1 WOP      0.092000
     26 N27         2.4750    1.9600    5.4920 n         1 WOP     -0.555900
     27 N28         4.2150    4.2130    6.4050 n         1 WOP     -0.566900
     28 N29         3.3570    5.5670    8.2400 n         1 WOP     -0.424800
     29 O30         2.1920    7.5190   12.0420 o         1 WOP     -0.813800
     30 O31         4.0830    6.3280   11.9640 o         1 WOP     -0.813800
     31 O32         4.4260    1.4680    4.3890 o         1 WOP     -0.637100
     32 O33         1.9830    4.7150    6.5630 o         1 WOP     -0.694100
     33 O34         0.4650    2.3680   12.9990 os        1 WOP     -0.356900
     34 O35         1.6660    4.2410   13.7100 os        1 WOP     -0.313900
     35 H1         -1.1550   -0.6280    1.2510 ha        1 WOP      0.122000
     36 H3          1.2840   -0.2150    0.9250 ha        1 WOP      0.125500
     37 H4         -2.1560   -0.4440    3.5290 ha        1 WOP      0.125500
     38 H2          8.4290    5.0060    2.0920 ha        1 WOP      0.124000
     39 H5          8.5430    3.2060    3.8180 ha        1 WOP      0.128000
     40 H6          6.2880    6.2310    1.7110 ha        1 WOP      0.128000
     41 H7          2.7270    0.3790    2.8870 ha        1 WOP      0.145000
     42 H8         -0.7240    0.1510    5.4780 ha        1 WOP      0.145000
     43 H9          6.5120    2.6210    5.1500 ha        1 WOP      0.143500
     44 H10         4.2720    5.6730    3.0600 ha        1 WOP      0.143500
     45 H11         0.8420    3.7050    8.5740 ha        1 WOP      0.138000
     46 H12        -0.0160    2.0140   10.2310 ha        1 WOP      0.131000
     47 H241        1.3970    0.4470    6.4280 h1        1 WOP      0.063200
     48 H242        2.8500   -0.0970    5.4540 h1        1 WOP      0.063200
     49 H26         3.1690    4.3830    4.5810 h1        1 WOP      0.092700
     50 H251        2.4710    6.9350    9.5360 h1        1 WOP      0.088200
     51 H252        1.3430    6.1520    8.3170 h1        1 WOP      0.088200
     52 H27         1.8860    2.6750    5.8650 hn        1 WOP      0.349500
     53 H28         5.1450    4.3860    6.7080 hn        1 WOP      0.315500
     54 H221        0.1340    3.3490   14.8140 h2        1 WOP      0.051200
     55 H222        1.7300    2.3840   14.6620 h2        1 WOP      0.051200
     56 H231        4.9290    4.4090    9.1020 h1        1 WOP      0.061367
     57 H232        5.4090    5.9910    8.3210 h1        1 WOP      0.061367
     58 H233        4.5410    5.9790    9.9390 h1        1 WOP      0.061367
     59 C19         2.8290    6.4490   11.8610 c         1 WOP      0.919200
@<TRIPOS>BOND
     1    1    3 ar  
     2    1    4 ar  
     3    1   35 1   
     4    2    5 ar  
     5    2    6 ar  
     6    2   38 1   
     7    3    7 ar  
     8    3   36 1   
     9    4    8 ar  
    10    4   37 1   
    11    5    9 ar  
    12    5   39 1   
    13    6   10 ar  
    14    6   40 1   
    15    7   14 ar  
    16    7   41 1   
    17    8   14 ar  
    18    8   42 1   
    19    9   15 ar  
    20    9   43 1   
    21   10   15 ar  
    22   10   44 1   
    23   11   12 ar  
    24   11   16 ar  
    25   11   45 1   
    26   12   17 ar  
    27   12   46 1   
    28   13   16 ar  
    29   13   18 ar  
    30   13   59 1   
    31   14   23 1   
    32   15   25 1   
    33   16   24 1   
    34   17   18 ar  
    35   17   33 1   
    36   18   34 1   
    37   19   25 1   
    38   19   26 1   
    39   19   31 2   
    40   20   27 1   
    41   20   28 1   
    42   20   32 2   
    43   21   33 1   
    44   21   34 1   
    45   21   54 1   
    46   21   55 1   
    47   22   28 1   
    48   22   56 1   
    49   22   57 1   
    50   22   58 1   
    51   23   26 1   
    52   23   47 1   
    53   23   48 1   
    54   24   28 1   
    55   24   50 1   
    56   24   51 1   
    57   25   27 1   
    58   25   49 1   
    59   26   52 1   
    60   27   53 1   
    61   29   59 1   
    62   30   59 1   
@<TRIPOS>SUBSTRUCTURE
     1 WOP         1 TEMP              0 ****  ****    0 ROOT
