@<TRIPOS>MOLECULE
WOT
   15    15     1     0     0
SMALL
bcc


@<TRIPOS>ATOM
      1 C1           0.0000     0.0000     0.0000 ca         1 WOT      -0.366400
      2 C2           1.3820     0.0000     0.0000 ca         1 WOT      -0.033000
      3 C3           2.0740     0.0000     1.1980 ca         1 WOT      -0.068000
      4 C4           1.3820     0.0010     2.3950 ca         1 WOT      -0.001000
      5 C5           0.0000     0.0010     2.3950 ca         1 WOT      -0.068000
      6 C6          -0.6910     0.0010     1.1970 ca         1 WOT      -0.033000
      7 N           -0.6990     0.0050    -1.2110 nz         1 WOT       0.309000
      8 H2           1.9240    -0.0010    -0.9380 ha         1 WOT       0.120500
      9 H1           3.1570    -0.0000     1.1980 ha         1 WOT       0.137000
     10 H3           1.9240     0.0010     3.3330 ha         1 WOT       0.132000
     11 H4          -0.5410     0.0020     3.3330 ha         1 WOT       0.137000
     12 H5          -1.7750     0.0010     1.1970 ha         1 WOT       0.120500
     13 HN3         -1.6630     0.2110    -1.0390 hn         1 WOT       0.204133
     14 HN2         -0.6220    -0.8940    -1.6440 hn         1 WOT       0.204133
     15 HN1         -0.3120     0.7010    -1.8170 hn         1 WOT       0.204133
@<TRIPOS>BOND
     1     1     2 ar  
     2     1     6 ar  
     3     1     7 1   
     4     2     3 ar  
     5     2     8 1   
     6     3     4 ar  
     7     3     9 1   
     8     4     5 ar  
     9     4    10 1   
    10     5     6 ar  
    11     5    11 1   
    12     6    12 1   
    13     7    13 1   
    14     7    14 1   
    15     7    15 1   
@<TRIPOS>SUBSTRUCTURE
     1 WOT         1 TEMP              0 ****  ****    0 ROOT
