@<TRIPOS>MOLECULE
molecule
   15    15     1     0     0
SMALL
bcc


@<TRIPOS>ATOM
      1 C1           0.0000     0.0000     0.0000 ca         1 WOT      -0.101400
      2 C2           1.3820     0.0000     0.0000 ca         1 WOT      -0.098000
      3 C3           2.0740     0.0000     1.1980 ca         1 WOT      -0.092000
      4 C4           1.3820     0.0010     2.3950 ca         1 WOT      -0.060000
      5 C5           0.0000     0.0010     2.3950 ca         1 WOT      -0.092000
      6 C6          -0.6910     0.0010     1.1970 ca         1 WOT      -0.098000
      7 N           -0.6990     0.0050    -1.2110 nz         1 WOT      -0.655000
      8 H2           1.9240    -0.0010    -0.9380 ha         1 WOT       0.151500
      9 H1           3.1570    -0.0000     1.1980 ha         1 WOT       0.174000
     10 H3           1.9240     0.0010     3.3330 ha         1 WOT       0.173000
     11 H4          -0.5410     0.0020     3.3330 ha         1 WOT       0.174000
     12 H5          -1.7750     0.0010     1.1970 ha         1 WOT       0.151500
     13 HN3         -1.6630     0.2110    -1.0390 hn         1 WOT       0.457800
     14 HN2         -0.6220    -0.8940    -1.6440 hn         1 WOT       0.457800
     15 HN1         -0.3120     0.7010    -1.8170 hn         1 WOT       0.457800
@<TRIPOS>BOND
     1     7     1 1
     2     6     1 ar
     3     6     5 ar
     4     1     2 ar
     5     5     4 ar
     6     2     3 ar
     7     4     3 ar
     8     2     8 1
     9     3     9 1
    10     4    10 1
    11     5    11 1
    12     6    12 1
    13     7    13 1
    14     7    14 1
    15     7    15 1
@<TRIPOS>SUBSTRUCTURE
     1 WOT         1 TEMP              0 ****  ****    0 ROOT
