@<TRIPOS>MOLECULE
molecule
   49    51     1     0     0
SMALL
bcc


@<TRIPOS>ATOM
      1 C01          0.0000     0.0000     0.0000 c3         1 WOW      -0.040800
      2 C02          1.5070     0.0000     0.0000 ca         1 WOW      -0.097300
      3 C03          2.1980     0.0000     1.1980 ca         1 WOW      -0.112000
      4 C04          3.5800     0.0000     1.1980 ca         1 WOW      -0.146000
      5 C05          4.2710     0.0020     0.0010 ca         1 WOW      -0.113000
      6 C06          3.5810     0.0030    -1.1960 ca         1 WOW      -0.162000
      7 C07          2.1990    -0.0040    -1.1970 ca         1 WOW      -0.033300
      8 C08          1.4450    -0.0030    -2.5020 c3         1 WOW      -0.142900
      9 N09          2.3940    -0.1030    -3.6130 nh         1 WOW      -0.603000
     10 C10          2.7180    -1.4110    -4.1860 c3         1 WOW       0.257500
     11 C11          2.3780    -1.4490    -5.6990 c3         1 WOW      -0.202400
     12 C12          3.3610    -2.5310    -6.2120 c3         1 WOW       0.019800
     13 N13          4.5920    -2.3250    -5.4280 n3         1 WOW      -0.761500
     14 C14          4.2420    -1.6540    -4.1680 c3         1 WOW       0.192800
     15 S15          6.1170    -2.7730    -5.8910 s6         1 WOW       1.311900
     16 C16          6.7620    -1.3330    -6.7850 c3         1 WOW      -0.255300
     17 O17          6.8160    -2.9540    -4.6670 o          1 WOW      -0.605300
     18 O18          5.9080    -3.8600    -6.7820 o          1 WOW      -0.605300
     19 C19          2.9900     1.0460    -4.1260 ca         1 WOW       0.127600
     20 C20          3.8790     0.9510    -5.1920 ca         1 WOW      -0.191000
     21 C21          4.4700     2.0850    -5.7020 ca         1 WOW      -0.051000
     22 C22          4.1750     3.3360    -5.1480 ca         1 WOW      -0.047000
     23 C23          4.7870     4.5170    -5.6770 cg         1 WOW       0.237800
     24 N24          5.2900     5.4450    -6.0960 n1         1 WOW      -0.345800
     25 C25          3.2800     3.4280    -4.0760 ca         1 WOW       0.104400
     26 Cl26         2.9090     4.9760    -3.3840 cl         1 WOW      -0.067400
     27 C27          2.6880     2.2880    -3.5750 ca         1 WOW      -0.209000
     28 H01         -0.3610    -1.0180     0.0830 hc         1 WOW       0.040033
     29 H01A        -0.3610     0.4370    -0.9230 hc         1 WOW       0.040033
     30 H01B        -0.3610     0.5810     0.8400 hc         1 WOW       0.040033
     31 H03          1.6560     0.0000     2.1360 ha         1 WOW       0.129000
     32 H04          4.1210     0.0000     2.1360 ha         1 WOW       0.128000
     33 H05          5.3550     0.0020     0.0010 ha         1 WOW       0.128000
     34 H06          4.1220     0.0040    -2.1340 ha         1 WOW       0.123000
     35 H08          0.4610     0.4240    -2.3510 h1         1 WOW       0.206200
     36 H08A         1.9870     0.5880    -3.2310 h1         1 WOW       0.206200
     37 H10          2.2010    -2.2050    -3.6600 h1         1 WOW       0.108700
     38 H11          1.8460    -2.3620    -5.9400 hc         1 WOW       0.094200
     39 H11A         1.7880    -0.5820    -5.9710 hc         1 WOW       0.094200
     40 H12          2.9090    -3.0910    -7.0220 h1         1 WOW       0.135200
     41 H12A         4.2850    -2.0700    -6.5380 h1         1 WOW       0.135200
     42 H14          4.7640    -0.7340    -3.9370 h1         1 WOW       0.069700
     43 H14A         4.4890    -2.4230    -3.4460 h1         1 WOW       0.069700
     44 H16          7.0110    -0.5510    -6.0790 h1         1 WOW       0.100367
     45 H16A         7.6500    -1.6180    -7.3360 h1         1 WOW       0.100367
     46 H16B         6.0090    -0.9700    -7.4750 h1         1 WOW       0.100367
     47 H20          4.1080    -0.0160    -5.6220 ha         1 WOW       0.165000
     48 H21          5.1620     2.0090    -6.5310 ha         1 WOW       0.149000
     49 H27          1.9920     2.3600    -2.7480 ha         1 WOW       0.172000
@<TRIPOS>BOND
     1     2     1 1
     2     1    28 1
     3     1    29 1
     4     1    30 1
     5     7     2 ar
     6     2     3 ar
     7     4     3 ar
     8     3    31 1
     9     5     4 ar
    10     4    32 1
    11     6     5 ar
    12     5    33 1
    13     6     7 ar
    14     6    34 1
    15     8     7 1
    16     9     8 1
    17     8    35 1
    18     8    36 1
    19    19     9 1
    20    10     9 1
    21    11    10 1
    22    10    14 1
    23    10    37 1
    24    11    12 1
    25    11    38 1
    26    11    39 1
    27    12    13 1
    28    12    40 1
    29    12    41 1
    30    14    13 1
    31    13    15 1
    32    14    42 1
    33    14    43 1
    34    15    16 1
    35    15    17 2
    36    15    18 2
    37    16    44 1
    38    16    45 1
    39    16    46 1
    40    27    19 ar
    41    19    20 ar
    42    21    20 ar
    43    20    47 1
    44    22    21 ar
    45    21    48 1
    46    23    22 1
    47    25    22 ar
    48    24    23 3
    49    26    25 1
    50    25    27 ar
    51    27    49 1
@<TRIPOS>SUBSTRUCTURE
     1 WOW         1 TEMP              0 ****  ****    0 ROOT
