@<TRIPOS>MOLECULE
WOW
   49    53     1     0     0
SMALL
bcc


@<TRIPOS>ATOM
      1 C01          0.0000     0.0000     0.0000 c3         1 WOW      -0.060000
      2 C02          1.5070     0.0000     0.0000 ca         1 WOW      -0.087000
      3 C03          2.1980     0.0000     1.1980 ca         1 WOW      -0.087000
      4 C04          3.5800     0.0000     1.1980 ca         1 WOW      -0.113000
      5 C05          4.2710     0.0020     0.0010 ca         1 WOW      -0.083000
      6 C06          3.5810     0.0030    -1.1960 ca         1 WOW      -0.147000
      7 C07          2.1990    -0.0040    -1.1970 ca         1 WOW      -0.046000
      8 C08          1.4450    -0.0030    -2.5020 c3         1 WOW      -0.378000
      9 N09          2.3940    -0.1030    -3.6130 nx         1 WOW       0.272000
     10 C10          2.7180    -1.4110    -4.1860 c3         1 WOW      -0.076000
     11 C11          2.3780    -1.4490    -5.6990 c3         1 WOW      -0.247000
     12 C12          3.3610    -2.5310    -6.2120 c3         1 WOW      -0.186000
     13 N13          4.5920    -2.3250    -5.4280 nx         1 WOW      -0.509000
     14 C14          4.2420    -1.6540    -4.1680 c3         1 WOW      -0.060000
     15 S15          6.1170    -2.7730    -5.8910 s6         1 WOW       2.333000
     16 C16          6.7620    -1.3330    -6.7850 c3         1 WOW      -0.568000
     17 O17          6.8160    -2.9540    -4.6670 o          1 WOW      -0.850500
     18 O18          5.9080    -3.8600    -6.7820 o          1 WOW      -0.850500
     19 C19          2.9900     1.0460    -4.1260 ca         1 WOW      -0.081000
     20 C20          3.8790     0.9510    -5.1920 ca         1 WOW      -0.200000
     21 C21          4.4700     2.0850    -5.7020 ca         1 WOW      -0.019000
     22 C22          4.1750     3.3360    -5.1480 ca         1 WOW      -0.009000
     23 C23          4.7870     4.5170    -5.6770 c1         1 WOW      -0.101000
     24 N24          5.2900     5.4450    -6.0960 n1         1 WOW      -0.044000
     25 C25          3.2800     3.4280    -4.0760 ca         1 WOW      -0.044000
     26 Cl26         2.9090     4.9760    -3.3840 cl         1 WOW       0.094000
     27 C27          2.6880     2.2880    -3.5750 ca         1 WOW      -0.197000
     28 H01         -0.3610    -1.0180     0.0830 hc         1 WOW       0.047333
     29 H01A        -0.3610     0.4370    -0.9230 hc         1 WOW       0.047333
     30 H01B        -0.3610     0.5810     0.8400 hc         1 WOW       0.047333
     31 H03          1.6560     0.0000     2.1360 ha         1 WOW       0.105000
     32 H04          4.1210     0.0000     2.1360 ha         1 WOW       0.103000
     33 H05          5.3550     0.0020     0.0010 ha         1 WOW       0.103000
     34 H06          4.1220     0.0040    -2.1340 ha         1 WOW       0.112000
     35 H08          0.4610     0.4240    -2.3510 hx         1 WOW       0.181000
     36 H08A         1.9870     0.5880    -3.2310 DU         1 WOW       0.133000
     37 H10          2.2010    -2.2050    -3.6600 hx         1 WOW       0.114000
     38 H11          1.8460    -2.3620    -5.9400 hc         1 WOW       0.109000
     39 H11A         1.7880    -0.5820    -5.9710 hc         1 WOW       0.109000
     40 H12          2.9090    -3.0910    -7.0220 hx         1 WOW       0.163000
     41 H12A         4.2850    -2.0700    -6.5380 DU         1 WOW       0.090000
     42 H14          4.7640    -0.7340    -3.9370 hx         1 WOW       0.076500
     43 H14A         4.4890    -2.4230    -3.4460 hx         1 WOW       0.076500
     44 H16          7.0110    -0.5510    -6.0790 h1         1 WOW       0.105000
     45 H16A         7.6500    -1.6180    -7.3360 h1         1 WOW       0.105000
     46 H16B         6.0090    -0.9700    -7.4750 h1         1 WOW       0.105000
     47 H20          4.1080    -0.0160    -5.6220 ha         1 WOW       0.156000
     48 H21          5.1620     2.0090    -6.5310 ha         1 WOW       0.111000
     49 H27          1.9920     2.3600    -2.7480 ha         1 WOW       0.144000
@<TRIPOS>BOND
     1     1     2 1   
     2     1    28 1   
     3     1    29 1   
     4     1    30 1   
     5     2     3 1   
     6     2     7 1   
     7     3     4 1   
     8     3    31 1   
     9     4     5 1   
    10     4    32 1   
    11     5     6 1   
    12     5    33 1   
    13     6     7 1   
    14     6    34 1   
    15     7     8 1   
    16     8     9 1   
    17     8    35 1   
    18     8    36 1   
    19     9    10 1   
    20     9    19 1   
    21     9    36 1   
    22    10    11 1   
    23    10    14 1   
    24    10    37 1   
    25    11    12 1   
    26    11    38 1   
    27    11    39 1   
    28    12    13 1   
    29    12    40 1   
    30    12    41 1   
    31    13    14 1   
    32    13    15 1   
    33    13    41 1   
    34    14    42 1   
    35    14    43 1   
    36    15    16 1   
    37    15    17 1   
    38    15    18 1   
    39    16    44 1   
    40    16    45 1   
    41    16    46 1   
    42    19    20 1   
    43    19    27 1   
    44    20    21 1   
    45    20    47 1   
    46    21    22 1   
    47    21    48 1   
    48    22    23 1   
    49    22    25 1   
    50    23    24 1   
    51    25    26 1   
    52    25    27 1   
    53    27    49 1   
@<TRIPOS>SUBSTRUCTURE
     1 WOW         1 TEMP              0 ****  ****    0 ROOT
