@<TRIPOS>MOLECULE
WP1
   28    29     1     0     0
SMALL
bcc


@<TRIPOS>ATOM
      1 CAG          0.0000     0.0000     0.0000 c3         1 WP1       0.010900
      2 CAH          1.5470     0.0000     0.0000 c3         1 WP1       0.144800
      3 CAJ          2.0890    -1.2570    -0.6830 c3         1 WP1      -0.004100
      4 CAK          2.0880     1.2600    -0.6780 c3         1 WP1      -0.004100
      5 OAI          1.8640     0.0000     1.4020 os         1 WP1      -0.257900
      6 CAC          0.8550    -0.5940     2.0920 ca         1 WP1       0.261100
      7 CAB         -0.3130    -0.6350     1.3410 ca         1 WP1      -0.180300
      8 CAA         -1.4640    -1.1880     1.8560 ca         1 WP1       0.034000
      9 CAF         -1.4740    -1.7180     3.1370 ca         1 WP1      -0.104000
     10 CAE         -0.3270    -1.6940     3.9010 ca         1 WP1      -0.069000
     11 CAD          0.8450    -1.1350     3.3900 ca         1 WP1      -0.269600
     12 CAL          2.0710    -1.1110     4.2100 c          1 WP1       0.351700
     13 OAN          3.0910    -0.6230     3.7630 o          1 WP1      -0.427100
     14 NAM          2.0600    -1.6300     5.4540 nz         1 WP1       0.200600
     15 H1          -0.3850    -0.6060    -0.8120 hc         1 WP1       0.051200
     16 H2          -0.3850     1.0120    -0.0460 hc         1 WP1       0.051200
     17 H3           1.8840    -1.2070    -1.7460 hc         1 WP1       0.023367
     18 H4           1.6080    -2.1320    -0.2630 hc         1 WP1       0.023367
     19 H5           3.1590    -1.3210    -0.5250 hc         1 WP1       0.023367
     20 H6           3.1710     1.2390    -0.6670 hc         1 WP1       0.023367
     21 H7           1.7390     2.1350    -0.1450 hc         1 WP1       0.023367
     22 H8           1.7380     1.2970    -1.7030 hc         1 WP1       0.023367
     23 H9          -2.3670    -1.2080     1.2570 ha         1 WP1       0.124000
     24 H10         -2.3820    -2.1530     3.5370 ha         1 WP1       0.130000
     25 H11         -0.3360    -2.1080     4.9010 ha         1 WP1       0.082000
     26 H12          1.3860    -1.1430     6.0120 hn         1 WP1       0.244133
     27 H13          2.9670    -1.5320     5.8640 hn         1 WP1       0.244133
     28 HAM3         1.8170    -2.6000     5.4080 hn         1 WP1       0.244133
@<TRIPOS>BOND
     1     1     2 1   
     2     1     7 1   
     3     1    15 1   
     4     1    16 1   
     5     2     3 1   
     6     2     4 1   
     7     2     5 1   
     8     3    17 1   
     9     3    18 1   
    10     3    19 1   
    11     4    20 1   
    12     4    21 1   
    13     4    22 1   
    14     5     6 1   
    15     6     7 ar  
    16     6    11 ar  
    17     7     8 ar  
    18     8     9 ar  
    19     8    23 1   
    20     9    10 ar  
    21     9    24 1   
    22    10    11 ar  
    23    10    25 1   
    24    11    12 1   
    25    12    13 2   
    26    12    14 1   
    27    14    26 1   
    28    14    27 1   
    29    14    28 1   
@<TRIPOS>SUBSTRUCTURE
     1 WP1         1 TEMP              0 ****  ****    0 ROOT
