@<TRIPOS>MOLECULE
molecule
   28    29     1     0     0
SMALL
bcc


@<TRIPOS>ATOM
      1 CAG          0.0000     0.0000     0.0000 c3         1 WP1      -0.059100
      2 CAH          1.5470     0.0000     0.0000 c3         1 WP1       0.135800
      3 CAJ          2.0890    -1.2570    -0.6830 c3         1 WP1      -0.095600
      4 CAK          2.0880     1.2600    -0.6780 c3         1 WP1      -0.095600
      5 OAI          1.8640     0.0000     1.4020 os         1 WP1      -0.276900
      6 CAC          0.8550    -0.5940     2.0920 ca         1 WP1       0.234100
      7 CAB         -0.3130    -0.6350     1.3410 ca         1 WP1      -0.164300
      8 CAA         -1.4640    -1.1880     1.8560 ca         1 WP1      -0.013000
      9 CAF         -1.4740    -1.7180     3.1370 ca         1 WP1      -0.135000
     10 CAE         -0.3270    -1.6940     3.9010 ca         1 WP1      -0.097000
     11 CAD          0.8450    -1.1350     3.3900 ca         1 WP1      -0.242600
     12 CAL          2.0710    -1.1110     4.2100 c          1 WP1       0.500700
     13 OAN          3.0910    -0.6230     3.7630 o          1 WP1      -0.410100
     14 NAM          2.0600    -1.6300     5.4540 nz         1 WP1      -0.677400
     15 H1          -0.3850    -0.6060    -0.8120 hc         1 WP1       0.086700
     16 H2          -0.3850     1.0120    -0.0460 hc         1 WP1       0.086700
     17 H3           1.8840    -1.2070    -1.7460 hc         1 WP1       0.059533
     18 H4           1.6080    -2.1320    -0.2630 hc         1 WP1       0.059533
     19 H5           3.1590    -1.3210    -0.5250 hc         1 WP1       0.059533
     20 H6           3.1710     1.2390    -0.6670 hc         1 WP1       0.059533
     21 H7           1.7390     2.1350    -0.1450 hc         1 WP1       0.059533
     22 H8           1.7380     1.2970    -1.7030 hc         1 WP1       0.059533
     23 H9          -2.3670    -1.2080     1.2570 ha         1 WP1       0.164000
     24 H10         -2.3820    -2.1530     3.5370 ha         1 WP1       0.164000
     25 H11         -0.3360    -2.1080     4.9010 ha         1 WP1       0.113000
     26 H12          1.3860    -1.1430     6.0120 hn         1 WP1       0.474467
     27 H13          2.9670    -1.5320     5.8640 hn         1 WP1       0.474467
     28 HAM3         1.8170    -2.6000     5.4080 hn         1 WP1       0.474467
@<TRIPOS>BOND
     1    10     9 ar
     2    10    11 ar
     3    13    12 2
     4     9     8 ar
     5    12    11 1
     6    12    14 1
     7    11     6 ar
     8     8     7 ar
     9     6     7 ar
    10     6     5 1
    11     7     1 1
    12     3     2 1
    13     5     2 1
    14     1     2 1
    15     2     4 1
    16     1    15 1
    17     1    16 1
    18     3    17 1
    19     3    18 1
    20     3    19 1
    21     4    20 1
    22     4    21 1
    23     4    22 1
    24     8    23 1
    25     9    24 1
    26    10    25 1
    27    14    26 1
    28    14    27 1
    29    28    14 1
@<TRIPOS>SUBSTRUCTURE
     1 WP1         1 TEMP              0 ****  ****    0 ROOT
