@<TRIPOS>MOLECULE
molecule
   40    42     1     0     0
SMALL
bcc


@<TRIPOS>ATOM
      1 CAP          0.0000     0.0000     0.0000 c3         1 WP5       0.139700
      2 OAO          1.4520     0.0000     0.0000 os         1 WP5      -0.432900
      3 C            2.0610     0.0000     1.1950 c          1 WP5       0.592100
      4 O            1.4040     0.0010     2.2090 o          1 WP5      -0.526000
      5 CA           3.5670     0.0010     1.2730 c3         1 WP5       0.196800
      6 N            3.9830     0.0020     2.6780 nh         1 WP5      -0.805600
      7 CAU          4.1820    -1.1770     3.3490 c2         1 WP5       0.673200
      8 CAW          3.3730    -2.3940     2.9780 c3         1 WP5      -0.136400
      9 NAT          5.0620    -1.2540     4.3030 ne         1 WP5      -0.670100
     10 CAS          5.8130    -0.1670     4.6610 ca         1 WP5       0.196400
     11 CAR          6.9570    -0.3240     5.4450 ca         1 WP5      -0.113000
     12 CAQ          7.7040     0.7810     5.7980 ca         1 WP5      -0.090000
     13 CAH          7.3230     2.0450     5.3770 ca         1 WP5      -0.036900
     14 BrA          8.3560     3.5510     5.8670 br         1 WP5      -0.101100
     15 CAI          6.1900     2.2080     4.5990 ca         1 WP5      -0.075000
     16 CAJ          5.4370     1.1110     4.2420 ca         1 WP5      -0.153300
     17 CAK          4.2010     1.2680     3.3950 c3         1 WP5       0.354100
     18 CAE          3.0180     1.5660     4.2770 ca         1 WP5      -0.107300
     19 CAF          2.5470     2.8610     4.3870 ca         1 WP5      -0.100000
     20 CAC          1.4600     3.1360     5.1960 ca         1 WP5      -0.127000
     21 CAB          0.8440     2.1150     5.8950 ca         1 WP5      -0.121000
     22 CAA          1.3150     0.8200     5.7850 ca         1 WP5      -0.127000
     23 CAD          2.3990     0.5450     4.9730 ca         1 WP5      -0.100000
     24 HAP1        -0.3610     0.8830     0.5130 h1         1 WP5       0.050700
     25 HAP2        -0.3610    -0.8860     0.5080 h1         1 WP5       0.050700
     26 HAP3        -0.3610     0.0030    -1.0210 h1         1 WP5       0.050700
     27 HA1C         3.9530     0.8850     0.7810 h1         1 WP5       0.082700
     28 HA2C         3.9540    -0.8840     0.7820 h1         1 WP5       0.082700
     29 HAK          4.3460     2.0710     2.6820 h1         1 WP5       0.070700
     30 HAW1         3.6620    -2.7330     1.9910 hc         1 WP5       0.066033
     31 HAW2         2.3190    -2.1410     2.9790 hc         1 WP5       0.066033
     32 HAW3         3.5550    -3.1820     3.6990 hc         1 WP5       0.066033
     33 HAR          7.2580    -1.3110     5.7760 ha         1 WP5       0.152000
     34 HAQ          8.5950     0.6600     6.4020 ha         1 WP5       0.145000
     35 HAI          5.8950     3.1980     4.2720 ha         1 WP5       0.141000
     36 HAF          3.0300     3.6610     3.8390 ha         1 WP5       0.130500
     37 HAD          2.7680    -0.4700     4.8870 ha         1 WP5       0.130500
     38 HAC          1.0910     4.1510     5.2810 ha         1 WP5       0.129000
     39 HAB         -0.0070     2.3300     6.5300 ha         1 WP5       0.127000
     40 HAA          0.8300     0.0200     6.3320 ha         1 WP5       0.129000
@<TRIPOS>BOND
     1     1     2 1
     2     2     3 1
     3     3     4 2
     4     3     5 1
     5     5     6 1
     6     6     7 1
     7     6    17 1
     8     7     8 1
     9     7     9 2
    10     9    10 1
    11    10    11 ar
    12    10    16 ar
    13    11    12 ar
    14    12    13 ar
    15    13    14 1
    16    13    15 ar
    17    15    16 ar
    18    16    17 1
    19    17    18 1
    20    18    19 ar
    21    18    23 ar
    22    19    20 ar
    23    20    21 ar
    24    21    22 ar
    25    22    23 ar
    26     1    24 1
    27     1    25 1
    28     1    26 1
    29     5    27 1
    30     5    28 1
    31    17    29 1
    32     8    30 1
    33     8    31 1
    34     8    32 1
    35    11    33 1
    36    12    34 1
    37    15    35 1
    38    19    36 1
    39    23    37 1
    40    20    38 1
    41    21    39 1
    42    22    40 1
@<TRIPOS>SUBSTRUCTURE
     1 WP5         1 TEMP              0 ****  ****    0 ROOT
