@<TRIPOS>MOLECULE
WP5
   40    42     1     0     0
SMALL
bcc


@<TRIPOS>ATOM
      1 CAP          0.0000     0.0000     0.0000 c3         1 WP5       0.269700
      2 OAO          1.4520     0.0000     0.0000 os         1 WP5      -0.415900
      3 C            2.0610     0.0000     1.1950 c          1 WP5       0.655100
      4 O            1.4040     0.0010     2.2090 o          1 WP5      -0.565000
      5 CA           3.5670     0.0010     1.2730 c3         1 WP5       0.140800
      6 N            3.9830     0.0020     2.6780 nh         1 WP5      -0.452600
      7 CAU          4.1820    -1.1770     3.3490 c2         1 WP5       0.502200
      8 CAW          3.3730    -2.3940     2.9780 c3         1 WP5      -0.047400
      9 NAT          5.0620    -1.2540     4.3030 ne         1 WP5      -0.576100
     10 CAS          5.8130    -0.1670     4.6610 ca         1 WP5       0.157400
     11 CAR          6.9570    -0.3240     5.4450 ca         1 WP5      -0.085000
     12 CAQ          7.7040     0.7810     5.7980 ca         1 WP5      -0.070000
     13 CAH          7.3230     2.0450     5.3770 ca         1 WP5       0.017100
     14 BrA          8.3560     3.5510     5.8670 br         1 WP5      -0.136100
     15 CAI          6.1900     2.2080     4.5990 ca         1 WP5      -0.052000
     16 CAJ          5.4370     1.1110     4.2420 ca         1 WP5      -0.162300
     17 CAK          4.2010     1.2680     3.3950 c3         1 WP5       0.293100
     18 CAE          3.0180     1.5660     4.2770 ca         1 WP5      -0.121300
     19 CAF          2.5470     2.8610     4.3870 ca         1 WP5      -0.080500
     20 CAC          1.4600     3.1360     5.1960 ca         1 WP5      -0.098000
     21 CAB          0.8440     2.1150     5.8950 ca         1 WP5      -0.094000
     22 CAA          1.3150     0.8200     5.7850 ca         1 WP5      -0.098000
     23 CAD          2.3990     0.5450     4.9730 ca         1 WP5      -0.080500
     24 HAP1        -0.3610     0.8830     0.5130 h1         1 WP5       0.003033
     25 HAP2        -0.3610    -0.8860     0.5080 h1         1 WP5       0.003033
     26 HAP3        -0.3610     0.0030    -1.0210 h1         1 WP5       0.003033
     27 HA1C         3.9530     0.8850     0.7810 h1         1 WP5       0.046700
     28 HA2C         3.9540    -0.8840     0.7820 h1         1 WP5       0.046700
     29 HAK          4.3460     2.0710     2.6820 h1         1 WP5       0.039700
     30 HAW1         3.6620    -2.7330     1.9910 hc         1 WP5       0.027033
     31 HAW2         2.3190    -2.1410     2.9790 hc         1 WP5       0.027033
     32 HAW3         3.5550    -3.1820     3.6990 hc         1 WP5       0.027033
     33 HAR          7.2580    -1.3110     5.7760 ha         1 WP5       0.121000
     34 HAQ          8.5950     0.6600     6.4020 ha         1 WP5       0.115000
     35 HAI          5.8950     3.1980     4.2720 ha         1 WP5       0.116000
     36 HAF          3.0300     3.6610     3.8390 ha         1 WP5       0.110000
     37 HAD          2.7680    -0.4700     4.8870 ha         1 WP5       0.110000
     38 HAC          1.0910     4.1510     5.2810 ha         1 WP5       0.101500
     39 HAB         -0.0070     2.3300     6.5300 ha         1 WP5       0.100000
     40 HAA          0.8300     0.0200     6.3320 ha         1 WP5       0.101500
@<TRIPOS>BOND
     1     1     2 1   
     2     1    24 1   
     3     1    25 1   
     4     1    26 1   
     5     2     3 1   
     6     3     4 2   
     7     3     5 1   
     8     5     6 1   
     9     5    27 1   
    10     5    28 1   
    11     6     7 1   
    12     6    17 1   
    13     7     8 1   
    14     7     9 2   
    15     8    30 1   
    16     8    31 1   
    17     8    32 1   
    18     9    10 1   
    19    10    11 ar  
    20    10    16 ar  
    21    11    12 ar  
    22    11    33 1   
    23    12    13 ar  
    24    12    34 1   
    25    13    14 1   
    26    13    15 ar  
    27    15    16 ar  
    28    15    35 1   
    29    16    17 1   
    30    17    18 1   
    31    17    29 1   
    32    18    19 ar  
    33    18    23 ar  
    34    19    20 ar  
    35    19    36 1   
    36    20    21 ar  
    37    20    38 1   
    38    21    22 ar  
    39    21    39 1   
    40    22    23 ar  
    41    22    40 1   
    42    23    37 1   
@<TRIPOS>SUBSTRUCTURE
     1 WP5         1 TEMP              0 ****  ****    0 ROOT
