@<TRIPOS>MOLECULE
molecule
   44    47     1     0     0
SMALL
bcc


@<TRIPOS>ATOM
      1 CAD          0.0000     0.0000     0.0000 ca         1 WP6      -0.113500
      2 CAA          1.3820     0.0000     0.0000 ca         1 WP6      -0.127000
      3 CAB          2.0740     0.0000     1.1970 ca         1 WP6      -0.124000
      4 CAC          1.3830     0.0010     2.3940 ca         1 WP6      -0.127000
      5 CAF          0.0010     0.0010     2.3940 ca         1 WP6      -0.113500
      6 CAE         -0.6900    -0.0000     1.1980 ca         1 WP6      -0.108300
      7 CAM         -2.1970    -0.0000     1.1990 c3         1 WP6       0.352100
      8 CAL         -2.7090    -1.3990     1.4450 ca         1 WP6      -0.143300
      9 CAK         -2.8820    -2.2800     0.4010 ca         1 WP6      -0.094000
     10 CAJ         -3.3510    -3.5600     0.6480 ca         1 WP6       0.009400
     11 Cl          -3.5680    -4.6710    -0.6680 cl         1 WP6      -0.117400
     12 CAR         -3.6470    -3.9570     1.9410 ca         1 WP6      -0.108000
     13 CAS         -3.4780    -3.0800     2.9940 ca         1 WP6      -0.107000
     14 CAT         -3.0070    -1.7900     2.7520 ca         1 WP6       0.191400
     15 NAU         -2.8370    -0.9080     3.7860 ne         1 WP6      -0.676100
     16 CAV         -2.6880     0.3660     3.5660 c2         1 WP6       0.664200
     17 CAW         -2.5040     1.3090     4.7270 c3         1 WP6      -0.127400
     18 NAN         -2.6950     0.8560     2.2860 nh         1 WP6      -0.813600
     19 CAO         -3.1890     2.2070     2.0070 c3         1 WP6       0.282100
     20 CAP         -4.6680     2.1520     1.7200 ca         1 WP6      -0.117300
     21 CAX         -5.5770     2.2830     2.7530 ca         1 WP6      -0.112500
     22 CAY         -6.9340     2.2330     2.4900 ca         1 WP6      -0.125000
     23 CAQ         -7.3800     2.0520     1.1940 ca         1 WP6      -0.120000
     24 CAH         -6.4700     1.9220     0.1610 ca         1 WP6      -0.125000
     25 CAG         -5.1140     1.9770     0.4240 ca         1 WP6      -0.112500
     26 HAD         -0.5420    -0.0000    -0.9380 ha         1 WP6       0.134000
     27 HAA          1.9230    -0.0000    -0.9380 ha         1 WP6       0.130500
     28 HAB          3.1580    -0.0000     1.1970 ha         1 WP6       0.130000
     29 HAC          1.9250     0.0010     3.3320 ha         1 WP6       0.130500
     30 HAF         -0.5400     0.0010     3.3330 ha         1 WP6       0.134000
     31 HAM         -2.5700     0.3630     0.2490 h1         1 WP6       0.072700
     32 HAK         -2.7090    -1.9540    -0.6170 ha         1 WP6       0.138000
     33 HAR         -4.0130    -4.9590     2.1270 ha         1 WP6       0.144000
     34 HAS         -3.7100    -3.3930     4.0050 ha         1 WP6       0.151000
     35 HAW1        -1.9450     0.8120     5.5100 hc         1 WP6       0.060700
     36 HAW2        -1.9620     2.1870     4.3960 hc         1 WP6       0.060700
     37 HAW3        -3.4740     1.6060     5.1080 hc         1 WP6       0.060700
     38 HAO1        -3.0120     2.8410     2.8680 h1         1 WP6       0.058200
     39 HAO2        -2.6690     2.6110     1.1470 h1         1 WP6       0.058200
     40 HAX         -5.2270     2.4250     3.7680 ha         1 WP6       0.127500
     41 HAG         -4.4010     1.8760    -0.3850 ha         1 WP6       0.127500
     42 HAY         -7.6470     2.3350     3.3000 ha         1 WP6       0.132000
     43 HAQ         -8.4430     2.0110     0.9880 ha         1 WP6       0.131000
     44 HAH         -6.8200     1.7830    -0.8550 ha         1 WP6       0.132000
@<TRIPOS>BOND
     1     1     2 ar
     2     1     6 ar
     3     2     3 ar
     4     3     4 ar
     5     4     5 ar
     6     5     6 ar
     7     6     7 1
     8     7     8 1
     9     7    18 1
    10     8     9 ar
    11     8    14 ar
    12     9    10 ar
    13    10    11 1
    14    10    12 ar
    15    12    13 ar
    16    13    14 ar
    17    14    15 1
    18    15    16 2
    19    16    17 1
    20    16    18 1
    21    18    19 1
    22    19    20 1
    23    20    21 ar
    24    20    25 ar
    25    21    22 ar
    26    22    23 ar
    27    23    24 ar
    28    24    25 ar
    29     1    26 1
    30     2    27 1
    31     3    28 1
    32     4    29 1
    33     5    30 1
    34     7    31 1
    35     9    32 1
    36    12    33 1
    37    13    34 1
    38    17    35 1
    39    17    36 1
    40    17    37 1
    41    19    38 1
    42    19    39 1
    43    21    40 1
    44    25    41 1
    45    22    42 1
    46    23    43 1
    47    24    44 1
@<TRIPOS>SUBSTRUCTURE
     1 WP6         1 TEMP              0 ****  ****    0 ROOT
