@<TRIPOS>MOLECULE
WP7
   60    64     1     0     0
SMALL
bcc


@<TRIPOS>ATOM
      1 CAD        -0.9140    0.4640   -0.3250 ca        1 WP7     -0.113000
      2 CAA         0.3670    0.7760   -0.7770 ca        1 WP7     -0.131500
      3 CAB         1.4570    0.6800    0.0890 ca        1 WP7     -0.123000
      4 CAC         1.2630    0.2700    1.4080 ca        1 WP7     -0.131500
      5 CAF        -0.0170   -0.0460    1.8620 ca        1 WP7     -0.113000
      6 CAE        -1.1110    0.0480    0.9960 ca        1 WP7     -0.109300
      7 CAN        -2.5100   -0.3040    1.4670 c3        1 WP7      0.334100
      8 CAM        -2.5800   -1.7760    1.8000 ca        1 WP7     -0.139300
      9 CAL        -2.3190   -2.7160    0.8040 ca        1 WP7     -0.095000
     10 CAK        -2.3860   -4.0760    1.1080 ca        1 WP7     -0.000600
     11 CLA        -2.0670   -5.2270   -0.1020 cl        1 WP7     -0.098400
     12 CAX        -2.7120   -4.5010    2.4020 ca        1 WP7     -0.112000
     13 CAY        -2.9800   -3.5690    3.3950 ca        1 WP7     -0.109000
     14 CAZ        -2.9260   -2.1850    3.1100 ca        1 WP7      0.167400
     15 NBA        -3.2260   -1.2560    4.1170 ne        1 WP7     -0.657100
     16 CBB        -3.2560    0.0280    3.8110 c2        1 WP7      0.658200
     17 CBC        -3.6220    1.0030    4.9130 c3        1 WP7     -0.139400
     18 NAO        -2.9440    0.5650    2.5560 nh        1 WP7     -0.784600
     19 CAP        -3.2720    1.9210    2.2020 c3        1 WP7      0.216800
     20 CAQ        -4.7420    2.1070    1.7460 c3        1 WP7      0.139800
     21 NAR        -5.1170    3.5100    1.6410 n3        1 WP7     -0.728600
     22 CAG        -6.5600    3.6660    1.5120 c3        1 WP7      0.139800
     23 CAH        -7.0000    5.1390    1.3510 c3        1 WP7      0.082500
     24 CBD        -4.3830    4.2170    0.5990 c3        1 WP7      0.139800
     25 CBE        -4.8280    5.6850    0.4350 c3        1 WP7      0.082500
     26 NAS        -6.2640    5.8550    0.3360 n         1 WP7     -0.446800
     27 CAT        -6.8210    6.2390   -0.8790 c         1 WP7      0.591600
     28 OAI        -6.0970    6.4840   -1.8670 o         1 WP7     -0.591100
     29 CAU        -8.2780    6.4290   -1.0040 cc        1 WP7      0.183200
     30 CBF        -9.0970    6.3280   -2.1170 cd        1 WP7     -0.183300
     31 CBG       -10.4250    6.6970   -1.6870 cd        1 WP7     -0.274300
     32 CAW       -10.3340    7.0110   -0.3450 cc        1 WP7      0.259600
     33 OAV        -9.0250    6.8530    0.1040 os        1 WP7     -0.351800
     34 HAD        -1.7690    0.5410   -1.0140 ha        1 WP7      0.136000
     35 HAA         0.5180    1.0980   -1.8180 ha        1 WP7      0.134000
     36 HAB         2.4670    0.9270   -0.2680 ha        1 WP7      0.133000
     37 HAC         2.1200    0.1920    2.0920 ha        1 WP7      0.134000
     38 HAF        -0.1680   -0.3760    2.9010 ha        1 WP7      0.136000
     39 HAN        -3.2190   -0.1270    0.5930 h1        1 WP7      0.050700
     40 HAL        -2.0510   -2.3800   -0.2100 ha        1 WP7      0.149000
     41 HAX        -2.7570   -5.5760    2.6340 ha        1 WP7      0.147000
     42 HAY        -3.2400   -3.9080    4.4100 ha        1 WP7      0.152000
     43 HBC1       -3.8630    0.4590    5.8590 hc        1 WP7      0.065367
     44 HBC2       -2.7620    1.6890    5.1070 hc        1 WP7      0.065367
     45 HBC3       -4.5150    1.6030    4.6100 hc        1 WP7      0.065367
     46 HAP1       -3.0620    2.5950    3.0790 h1        1 WP7      0.065700
     47 HAP2       -2.5870    2.2280    1.3590 h1        1 WP7      0.065700
     48 HAQ1       -5.4230    1.6310    2.5070 h1        1 WP7      0.039200
     49 HAQ2       -4.8880    1.5590    0.7700 h1        1 WP7      0.039200
     50 HAG1       -7.0340    3.2750    2.4550 h1        1 WP7      0.041950
     51 HAG2       -6.9690    3.0680    0.6460 h1        1 WP7      0.041950
     52 HBD1       -4.4680    3.6960   -0.3990 h1        1 WP7      0.041950
     53 HBD2       -3.2960    4.2270    0.8930 h1        1 WP7      0.041950
     54 HAH1       -8.1020    5.1390    1.1270 h1        1 WP7      0.071200
     55 HAH2       -6.8370    5.6780    2.3280 h1        1 WP7      0.071200
     56 HBE1       -4.3240    6.1030   -0.4820 h1        1 WP7      0.071200
     57 HBE2       -4.4870    6.2740    1.3340 h1        1 WP7      0.071200
     58 HBF        -8.8000    6.0380   -3.1220 ha        1 WP7      0.177000
     59 HBG       -11.3110    6.7230   -2.3160 ha        1 WP7      0.168000
     60 HAW       -11.0300    7.3500    0.4180 h4        1 WP7      0.058100
@<TRIPOS>BOND
     1    1    2 ar  
     2    1    6 ar  
     3    1   34 1   
     4    2    3 ar  
     5    2   35 1   
     6    3    4 ar  
     7    3   36 1   
     8    4    5 ar  
     9    4   37 1   
    10    5    6 ar  
    11    5   38 1   
    12    6    7 1   
    13    7    8 1   
    14    7   18 1   
    15    7   39 1   
    16    8    9 ar  
    17    8   14 ar  
    18    9   10 ar  
    19    9   40 1   
    20   10   11 1   
    21   10   12 ar  
    22   12   13 ar  
    23   12   41 1   
    24   13   14 ar  
    25   13   42 1   
    26   14   15 1   
    27   15   16 2   
    28   16   17 1   
    29   16   18 1   
    30   17   43 1   
    31   17   44 1   
    32   17   45 1   
    33   18   19 1   
    34   19   20 1   
    35   19   46 1   
    36   19   47 1   
    37   20   21 1   
    38   20   48 1   
    39   20   49 1   
    40   21   22 1   
    41   21   24 1   
    42   22   23 1   
    43   22   50 1   
    44   22   51 1   
    45   23   26 1   
    46   23   54 1   
    47   23   55 1   
    48   24   25 1   
    49   24   52 1   
    50   24   53 1   
    51   25   26 1   
    52   25   56 1   
    53   25   57 1   
    54   26   27 1   
    55   27   28 2   
    56   27   29 1   
    57   29   30 2   
    58   29   33 1   
    59   30   31 1   
    60   30   58 1   
    61   31   32 2   
    62   31   59 1   
    63   32   33 1   
    64   32   60 1   
@<TRIPOS>SUBSTRUCTURE
     1 WP7         1 TEMP              0 ****  ****    0 ROOT
