@<TRIPOS>MOLECULE
WPE
   49    52     1     0     0
SMALL
bcc


@<TRIPOS>ATOM
      1 CAD        -0.7260    0.1660   -0.3240 ca        1 WPE     -0.118500
      2 CAA         0.6200    0.2590   -0.6750 ca        1 WPE     -0.125500
      3 CAB         1.6090    0.1280    0.3020 ca        1 WPE     -0.110000
      4 CAC         1.2480   -0.1010    1.6300 ca        1 WPE     -0.125500
      5 CAF        -0.0970   -0.1980    1.9830 ca        1 WPE     -0.118500
      6 CAE        -1.0900   -0.0650    1.0070 ca        1 WPE     -0.141300
      7 CAK        -2.5550   -0.1880    1.3690 c3        1 WPE      0.339100
      8 CAJ        -2.8340   -1.5550    1.9480 ca        1 WPE     -0.123300
      9 CAI        -2.6610   -2.6830    1.1480 ca        1 WPE     -0.102000
     10 CAH        -2.9200   -3.9490    1.6800 ca        1 WPE      0.019400
     11 CL         -2.7140   -5.3240    0.7100 cl        1 WPE     -0.066400
     12 CAR        -3.3460   -4.0890    3.0060 ca        1 WPE     -0.111000
     13 CAS        -3.5220   -2.9670    3.8070 ca        1 WPE     -0.084000
     14 CAT        -3.2710   -1.6790    3.2870 ca        1 WPE      0.135400
     15 NAU        -3.4580   -0.5500    4.1050 ne        1 WPE     -0.593100
     16 CAV        -3.3170    0.6490    3.5930 c2        1 WPE      0.625200
     17 CAW        -3.5120    1.8420    4.5040 c3        1 WPE     -0.137400
     18 NAL        -3.0160    0.9010    2.2320 nh        1 WPE     -0.799600
     19 CAM        -2.8990    2.2220    1.7130 c3        1 WPE      0.223800
     20 CAN        -4.2460    2.7070    1.0960 c3        1 WPE      0.063800
     21 NAO        -4.1220    4.0610    0.4850 n4        1 WPE     -0.663800
     22 CAP        -5.4200    4.4740   -0.1860 c         1 WPE      0.496600
     23 OAQ        -5.4510    4.3230   -1.4010 o         1 WPE     -0.424100
     24 CAY        -6.4420    5.0000    0.6680 cc        1 WPE      0.076200
     25 CAX        -7.7240    5.4680    0.3780 cd        1 WPE     -0.048300
     26 CBA        -8.3000    5.8820    1.6270 cd        1 WPE     -0.274300
     27 CBB        -7.3480    5.6480    2.6080 cc        1 WPE      0.358600
     28 OAZ        -6.1960    5.1060    2.0550 os        1 WPE     -0.381800
     29 HAD        -1.4980    0.2500   -1.1030 ha        1 WPE      0.135000
     30 HAA         0.9030    0.4250   -1.7250 ha        1 WPE      0.144500
     31 HAB         2.6710    0.1950    0.0220 ha        1 WPE      0.147000
     32 HAC         2.0260   -0.2150    2.4000 ha        1 WPE      0.144500
     33 HAF        -0.3790   -0.3980    3.0290 ha        1 WPE      0.135000
     34 HAK        -3.1590   -0.1000    0.4090 h1        1 WPE      0.048700
     35 HAI        -2.3140   -2.5740    0.1080 ha        1 WPE      0.154000
     36 HAR        -3.5430   -5.0910    3.4200 ha        1 WPE      0.161000
     37 HAS        -3.8580   -3.0840    4.8500 ha        1 WPE      0.162000
     38 HAW1       -2.5390    2.3740    4.6410 hc        1 WPE      0.062700
     39 HAW2       -3.8740    1.5120    5.5110 hc        1 WPE      0.062700
     40 HAW3       -4.2690    2.5420    4.0730 hc        1 WPE      0.062700
     41 HAM1       -2.5910    2.9510    2.5150 h1        1 WPE      0.068700
     42 HAM2       -2.1090    2.2370    0.9030 h1        1 WPE      0.068700
     43 HAN1       -5.0430    2.7600    1.8920 hx        1 WPE      0.114700
     44 HAN2       -4.5800    1.9920    0.2900 hx        1 WPE      0.114700
     45 HAO        -3.3730    4.0500   -0.2180 hn        1 WPE      0.461300
     46 HAX        -8.1990    5.5130   -0.6060 ha        1 WPE      0.205000
     47 HBA        -9.2990    6.3000    1.7620 ha        1 WPE      0.206000
     48 HBB        -7.3040    5.7910    3.6900 h4        1 WPE      0.089100
     49 HAO2       -3.8860    4.7430    1.2150 hn        1 WPE      0.461300
@<TRIPOS>BOND
     1    1    2 ar
     2    1    6 ar
     3    1   29 1
     4    2    3 ar
     5    2   30 1
     6    3    4 ar
     7    3   31 1
     8    4    5 ar
     9    4   32 1
    10    5    6 ar
    11    5   33 1
    12    6    7 1
    13    7    8 1
    14    7   18 1
    15    7   34 1
    16    8    9 ar
    17    8   14 ar
    18    9   10 ar
    19    9   35 1
    20   10   11 1
    21   10   12 ar
    22   12   13 ar
    23   12   36 1
    24   13   14 ar
    25   13   37 1
    26   14   15 1
    27   15   16 2
    28   16   17 1
    29   16   18 1
    30   17   38 1
    31   17   39 1
    32   17   40 1
    33   18   19 1
    34   19   20 1
    35   19   41 1
    36   19   42 1
    37   20   21 1
    38   20   43 1
    39   20   44 1
    40   21   22 1
    41   21   45 1
    42   21   49 1
    43   22   23 2
    44   22   24 1
    45   24   25 2
    46   24   28 1
    47   25   26 1
    48   25   46 1
    49   26   27 2
    50   26   47 1
    51   27   28 1
    52   27   48 1
@<TRIPOS>SUBSTRUCTURE
     1 WPE         1 TEMP              0 ****  ****    0 ROOT
