@<TRIPOS>MOLECULE
WPF
   51    53     1     0     0
SMALL
bcc


@<TRIPOS>ATOM
      1 CAR          0.0000     0.0000     0.0000 c3         1 WPF       0.182100
      2 NAQ          1.4690     0.0000     0.0000 n3         1 WPF      -0.544600
      3 CAY          1.9980     0.0000     1.3700 c3         1 WPF       0.182100
      4 CAP          1.9950    -1.1380    -0.7670 c3         1 WPF       0.157800
      5 CAO          3.5040    -0.9700    -0.9580 c3         1 WPF      -0.064400
      6 CAN          4.0520    -2.1560    -1.7560 c3         1 WPF       0.175800
      7 NAM          5.4980    -2.0010    -1.9280 nh         1 WPF      -0.468600
      8 CAW          6.0040    -1.2610    -2.9650 c2         1 WPF       0.497200
      9 CAX          5.2480    -1.1830    -4.2660 c3         1 WPF      -0.033400
     10 NAV          7.1320    -0.6260    -2.8340 ne         1 WPF      -0.585100
     11 CAU          7.8420    -0.6770    -1.6630 ca         1 WPF       0.156400
     12 CAT          8.8640     0.2400    -1.4160 ca         1 WPF      -0.081000
     13 CAS          9.5690     0.1760    -0.2320 ca         1 WPF      -0.085000
     14 CAI          9.2670    -0.7920     0.7100 ca         1 WPF      -0.053600
     15 Cl1         10.1600    -0.8620     2.1970 cl         1 WPF      -0.035400
     16 CAJ          8.2520    -1.7060     0.4710 ca         1 WPF      -0.068000
     17 CAK          7.5430    -1.6510    -0.7080 ca         1 WPF      -0.158300
     18 CAL          6.4370    -2.6340    -0.9880 c3         1 WPF       0.292100
     19 CAF          7.0140    -3.8830    -1.6040 ca         1 WPF      -0.128300
     20 CAG          7.1970    -5.0140    -0.8310 ca         1 WPF      -0.089500
     21 CAD          7.7250    -6.1590    -1.3950 ca         1 WPF      -0.099500
     22 CAC          8.0700    -6.1740    -2.7340 ca         1 WPF      -0.084300
     23 CAA          8.6470    -7.4230    -3.3500 c3         1 WPF       0.063200
     24 CAB          7.8850    -5.0440    -3.5090 ca         1 WPF      -0.099500
     25 CAE          7.3530    -3.8990    -2.9440 ca         1 WPF      -0.089500
     26 HAR1        -0.3610    -0.9040     0.4750 h1         1 WPF       0.002033
     27 HAR2        -0.3610     0.8640     0.5450 h1         1 WPF       0.002033
     28 HAR3        -0.3610     0.0400    -1.0210 h1         1 WPF       0.002033
     29 HAY1         2.1190    -1.0210     1.7110 h1         1 WPF       0.002033
     30 HAY2         2.9570     0.5030     1.3870 h1         1 WPF       0.002033
     31 HAY3         1.3070     0.5190     2.0240 h1         1 WPF       0.002033
     32 HAP1         1.7990    -2.0580    -0.2290 h1         1 WPF       0.007700
     33 HAP2         1.5110    -1.1760    -1.7350 h1         1 WPF       0.007700
     34 HAO1         3.7000    -0.0510    -1.4960 hc         1 WPF       0.032700
     35 HAO2         3.9880    -0.9320     0.0100 hc         1 WPF       0.032700
     36 HAN1         3.8470    -3.0760    -1.2230 h1         1 WPF       0.026200
     37 HAN2         3.5740    -2.1880    -2.7280 h1         1 WPF       0.026200
     38 HAL          5.9230    -2.8780    -0.0660 h1         1 WPF       0.041700
     39 HAX1         4.7870    -2.1410    -4.4740 hc         1 WPF       0.022033
     40 HAX2         5.9320    -0.9290    -5.0660 hc         1 WPF       0.022033
     41 HAX3         4.4800    -0.4220    -4.1920 hc         1 WPF       0.022033
     42 HAT          9.1030     0.9990    -2.1510 ha         1 WPF       0.120000
     43 HAS         10.3640     0.8870    -0.0380 ha         1 WPF       0.113000
     44 HAJ          8.0180    -2.4620     1.2100 ha         1 WPF       0.113000
     45 HAG          6.9270    -5.0020     0.2190 ha         1 WPF       0.113500
     46 HAE          7.2080    -3.0130    -3.5500 ha         1 WPF       0.113500
     47 HAD          7.8690    -7.0450    -0.7890 ha         1 WPF       0.107000
     48 HAA1         9.5580    -7.1750    -3.8810 hc         1 WPF       0.007700
     49 HAA2         8.8670    -8.1420    -2.5700 hc         1 WPF       0.007700
     50 HAA3         7.9300    -7.8490    -4.0410 hc         1 WPF       0.007700
     51 HAB          8.1530    -5.0560    -4.5580 ha         1 WPF       0.107000
@<TRIPOS>BOND
     1     1     2 1   
     2     1    26 1   
     3     1    27 1   
     4     1    28 1   
     5     2     3 1   
     6     2     4 1   
     7     3    29 1   
     8     3    30 1   
     9     3    31 1   
    10     4     5 1   
    11     4    32 1   
    12     4    33 1   
    13     5     6 1   
    14     5    34 1   
    15     5    35 1   
    16     6     7 1   
    17     6    36 1   
    18     6    37 1   
    19     7     8 1   
    20     7    18 1   
    21     8     9 1   
    22     8    10 2   
    23     9    39 1   
    24     9    40 1   
    25     9    41 1   
    26    10    11 1   
    27    11    12 ar  
    28    11    17 ar  
    29    12    13 ar  
    30    12    42 1   
    31    13    14 ar  
    32    13    43 1   
    33    14    15 1   
    34    14    16 ar  
    35    16    17 ar  
    36    16    44 1   
    37    17    18 1   
    38    18    19 1   
    39    18    38 1   
    40    19    20 ar  
    41    19    25 ar  
    42    20    21 ar  
    43    20    45 1   
    44    21    22 ar  
    45    21    47 1   
    46    22    23 1   
    47    22    24 ar  
    48    23    48 1   
    49    23    49 1   
    50    23    50 1   
    51    24    25 ar  
    52    24    51 1   
    53    25    46 1   
@<TRIPOS>SUBSTRUCTURE
     1 WPF         1 TEMP              0 ****  ****    0 ROOT
