@<TRIPOS>MOLECULE
molecule
   51    53     1     0     0
SMALL
bcc


@<TRIPOS>ATOM
      1 CAR          0.0000     0.0000     0.0000 c3         1 WPF       0.150600
      2 NAQ          1.4690     0.0000     0.0000 n3         1 WPF      -0.730600
      3 CAY          1.9980     0.0000     1.3700 c3         1 WPF       0.150600
      4 CAP          1.9950    -1.1380    -0.7670 c3         1 WPF       0.162800
      5 CAO          3.5040    -0.9700    -0.9580 c3         1 WPF      -0.107400
      6 CAN          4.0520    -2.1560    -1.7560 c3         1 WPF       0.233800
      7 NAM          5.4980    -2.0010    -1.9280 nh         1 WPF      -0.817600
      8 CAW          6.0040    -1.2610    -2.9650 c2         1 WPF       0.666200
      9 CAX          5.2480    -1.1830    -4.2660 c3         1 WPF      -0.128400
     10 NAV          7.1320    -0.6260    -2.8340 ne         1 WPF      -0.678100
     11 CAU          7.8420    -0.6770    -1.6630 ca         1 WPF       0.190400
     12 CAT          8.8640     0.2400    -1.4160 ca         1 WPF      -0.107000
     13 CAS          9.5690     0.1760    -0.2320 ca         1 WPF      -0.108000
     14 CAI          9.2670    -0.7920     0.7100 ca         1 WPF       0.008400
     15 Cl1         10.1600    -0.8620     2.1970 cl         1 WPF      -0.117400
     16 CAJ          8.2520    -1.7060     0.4710 ca         1 WPF      -0.095000
     17 CAK          7.5430    -1.6510    -0.7080 ca         1 WPF      -0.147300
     18 CAL          6.4370    -2.6340    -0.9880 c3         1 WPF       0.352100
     19 CAF          7.0140    -3.8830    -1.6040 ca         1 WPF      -0.114300
     20 CAG          7.1970    -5.0140    -0.8310 ca         1 WPF      -0.110000
     21 CAD          7.7250    -6.1590    -1.3950 ca         1 WPF      -0.127500
     22 CAC          8.0700    -6.1740    -2.7340 ca         1 WPF      -0.077300
     23 CAA          8.6470    -7.4230    -3.3500 c3         1 WPF      -0.048800
     24 CAB          7.8850    -5.0440    -3.5090 ca         1 WPF      -0.127500
     25 CAE          7.3530    -3.8990    -2.9440 ca         1 WPF      -0.110000
     26 HAR1        -0.3610    -0.9040     0.4750 h1         1 WPF       0.032867
     27 HAR2        -0.3610     0.8640     0.5450 h1         1 WPF       0.032867
     28 HAR3        -0.3610     0.0400    -1.0210 h1         1 WPF       0.032867
     29 HAY1         2.1190    -1.0210     1.7110 h1         1 WPF       0.032867
     30 HAY2         2.9570     0.5030     1.3870 h1         1 WPF       0.032867
     31 HAY3         1.3070     0.5190     2.0240 h1         1 WPF       0.032867
     32 HAP1         1.7990    -2.0580    -0.2290 h1         1 WPF       0.031700
     33 HAP2         1.5110    -1.1760    -1.7350 h1         1 WPF       0.031700
     34 HAO1         3.7000    -0.0510    -1.4960 hc         1 WPF       0.060200
     35 HAO2         3.9880    -0.9320     0.0100 hc         1 WPF       0.060200
     36 HAN1         3.8470    -3.0760    -1.2230 h1         1 WPF       0.050700
     37 HAN2         3.5740    -2.1880    -2.7280 h1         1 WPF       0.050700
     38 HAL          5.9230    -2.8780    -0.0660 h1         1 WPF       0.072700
     39 HAX1         4.7870    -2.1410    -4.4740 hc         1 WPF       0.062033
     40 HAX2         5.9320    -0.9290    -5.0660 hc         1 WPF       0.062033
     41 HAX3         4.4800    -0.4220    -4.1920 hc         1 WPF       0.062033
     42 HAT          9.1030     0.9990    -2.1510 ha         1 WPF       0.152000
     43 HAS         10.3640     0.8870    -0.0380 ha         1 WPF       0.144000
     44 HAJ          8.0180    -2.4620     1.2100 ha         1 WPF       0.139000
     45 HAG          6.9270    -5.0020     0.2190 ha         1 WPF       0.134000
     46 HAE          7.2080    -3.0130    -3.5500 ha         1 WPF       0.134000
     47 HAD          7.8690    -7.0450    -0.7890 ha         1 WPF       0.131500
     48 HAA1         9.5580    -7.1750    -3.8810 hc         1 WPF       0.044033
     49 HAA2         8.8670    -8.1420    -2.5700 hc         1 WPF       0.044033
     50 HAA3         7.9300    -7.8490    -4.0410 hc         1 WPF       0.044033
     51 HAB          8.1530    -5.0560    -4.5580 ha         1 WPF       0.131500
@<TRIPOS>BOND
     1     1     2 1
     2     2     3 1
     3     2     4 1
     4     4     5 1
     5     5     6 1
     6     6     7 1
     7     7     8 1
     8     7    18 1
     9     8     9 1
    10     8    10 2
    11    10    11 1
    12    11    12 ar
    13    11    17 ar
    14    12    13 ar
    15    13    14 ar
    16    14    15 1
    17    14    16 ar
    18    16    17 ar
    19    17    18 1
    20    18    19 1
    21    19    20 ar
    22    19    25 ar
    23    20    21 ar
    24    21    22 ar
    25    22    23 1
    26    22    24 ar
    27    24    25 ar
    28     1    26 1
    29     1    27 1
    30     1    28 1
    31     3    29 1
    32     3    30 1
    33     3    31 1
    34     4    32 1
    35     4    33 1
    36     5    34 1
    37     5    35 1
    38     6    36 1
    39     6    37 1
    40    18    38 1
    41     9    39 1
    42     9    40 1
    43     9    41 1
    44    12    42 1
    45    13    43 1
    46    16    44 1
    47    20    45 1
    48    25    46 1
    49    21    47 1
    50    23    48 1
    51    23    49 1
    52    23    50 1
    53    24    51 1
@<TRIPOS>SUBSTRUCTURE
     1 WPF         1 TEMP              0 ****  ****    0 ROOT
