@<TRIPOS>MOLECULE
molecule
   51    53     1     0     0
SMALL
bcc


@<TRIPOS>ATOM
      1 C4           0.0000     0.0000     0.0000 cc         1 WPG       0.111800
      2 C5           1.3980     0.0000     0.0000 cd         1 WPG       0.160800
      3 C6           2.0760     0.0000     1.2410 c          1 WPG       0.664000
      4 C8           0.7570    -0.0080    -2.0700 cc         1 WPG       0.418400
      5 N1           1.3390    -0.0000     2.3750 ns         1 WPG      -0.479400
      6 N3          -0.6640     0.0000     1.1620 nc         1 WPG      -0.601100
      7 PBF         -4.4380     4.6060    -1.3700 p5         1 WPG       1.054700
      8 OAJ         -5.0270     4.7810    -2.7170 o          1 WPG      -0.778500
      9 OAE         -4.8500     3.1630    -0.7870 o          1 WPG      -0.778500
     10 CAZ         -2.6220     4.7200    -1.4820 c3         1 WPG      -0.024100
     11 OAF         -2.0530     4.5520    -0.1810 oh         1 WPG      -0.589800
     12 CAN         -2.0980     3.6250    -2.4130 c3         1 WPG       0.130400
     13 OAT         -2.4640     2.3450    -1.8950 os         1 WPG      -0.318600
     14 CBA         -2.0220     1.2460    -2.6950 c3         1 WPG       0.124100
     15 CAO         -3.1540     0.7420    -3.6240 c3         1 WPG       0.062000
     16 NBC         -2.8170    -0.6660    -3.9000 n          1 WPG      -0.505800
     17 CAU         -3.2170    -1.3730    -4.9760 c          1 WPG       0.677100
     18 OAB         -2.8770    -2.5300    -5.1020 o          1 WPG      -0.649100
     19 CAL         -4.0860    -0.7240    -6.0230 c3         1 WPG      -0.110400
     20 CAM         -4.3940    -1.7360    -7.1280 c3         1 WPG      -0.246600
     21 PBE         -5.4440    -0.9520    -8.3950 p5         1 WPG       1.061700
     22 OAG         -5.6600    -1.9730    -9.6210 o          1 WPG      -0.814500
     23 OAH         -6.8720    -0.5760    -7.7510 o          1 WPG      -0.814500
     24 OAD         -4.7870     0.2790    -8.8880 o          1 WPG      -0.814500
     25 CAP         -1.9720    -1.1730    -2.8090 c3         1 WPG       0.093000
     26 CBB         -1.7560    -0.0080    -1.8190 c3         1 WPG       0.015000
     27 N9          -0.3810    -0.0050    -1.3150 na         1 WPG      -0.164900
     28 C2          -0.0230    -0.0010     2.3110 cd         1 WPG       0.218800
     29 O6           3.2940    -0.0010     1.2890 o          1 WPG      -0.676500
     30 N7           1.8010    -0.0000    -1.2940 nd         1 WPG      -0.652000
     31 H1           0.7860    -0.0170    -3.1530 h5         1 WPG       0.075100
     32 H2          -1.7230     0.0000     3.2630 hn         1 WPG       0.412800
     33 H3          -0.5200     0.8170     4.0080 hn         1 WPG       0.412800
     34 H7          -2.3440     5.6910    -1.8750 h1         1 WPG       0.027700
     35 H8          -1.5830     5.3330     0.0590 ho         1 WPG       0.353000
     36 H9          -2.0820     4.2270    -3.3130 h1         1 WPG       0.011700
     37 H10         -1.0370     3.5920    -2.2010 h1         1 WPG       0.011700
     38 H11         -1.1410     1.5070    -3.2690 h1         1 WPG       0.034700
     39 H12         -4.1570     1.1500    -3.5860 h1         1 WPG       0.092200
     40 H13         -2.4270     1.2040    -4.2800 h1         1 WPG       0.092200
     41 H14         -5.0120    -0.3920    -5.5690 hc         1 WPG       0.078200
     42 H15         -3.5660     0.1270    -6.4470 hc         1 WPG       0.078200
     43 H16         -3.4680    -2.0690    -7.5820 hc         1 WPG       0.038700
     44 H17         -4.9140    -2.5870    -6.7040 hc         1 WPG       0.038700
     45 H20         -2.4720    -1.9930    -2.3070 h1         1 WPG       0.038700
     46 H21         -1.0190    -1.5010    -3.2040 h1         1 WPG       0.038700
     47 H22         -2.4690    -0.0620    -1.0060 h1         1 WPG       0.120700
     48 H23          1.7960    -0.0000     3.2650 hn         1 WPG       0.290500
     49 N2          -0.7450     0.0000     3.4760 nz         1 WPG      -0.656600
     50 H231        -0.5200    -0.8170     4.0090 hn         1 WPG       0.412800
     51 OAI         -4.9810     5.7650    -0.3930 o          1 WPG      -0.778500
@<TRIPOS>BOND
     1    23    21 1
     2    20    19 1
     3    20    21 1
     4    19    17 1
     5    21    24 1
     6    21    22 1
     7    17    18 2
     8    17    16 1
     9    51     7 1
    10    11    10 1
    11    16    15 1
    12    16    25 1
    13    15    14 1
    14    10     7 1
    15    10    12 1
    16     7     9 1
    17     7     8 1
    18    25    26 1
    19    14    13 1
    20    14    26 1
    21    13    12 1
    22    26    27 1
    23    27     4 1
    24    27     1 1
    25     6     1 1
    26     6    28 2
    27     4    30 2
    28     1     2 2
    29    49    28 1
    30    28     5 1
    31    30     2 1
    32     2     3 1
    33     5     3 1
    34     3    29 2
    35     4    31 1
    36    49    32 1
    37    49    33 1
    38    10    34 1
    39    11    35 1
    40    12    36 1
    41    12    37 1
    42    14    38 1
    43    15    39 1
    44    15    40 1
    45    19    41 1
    46    19    42 1
    47    20    43 1
    48    20    44 1
    49    25    45 1
    50    25    46 1
    51    26    47 1
    52     5    48 1
    53    50    49 1
@<TRIPOS>SUBSTRUCTURE
     1 WPG         1 TEMP              0 ****  ****    0 ROOT
