@<TRIPOS>MOLECULE
WPH
   73    77     1     0     0
SMALL
bcc


@<TRIPOS>ATOM
      1 C35         0.5200   -0.7060    0.7540 c3        1 WPH      0.082600
      2 N36         1.8360   -0.3180    0.1850 n4        1 WPH     -0.677400
      3 C39         2.8630   -0.2150    1.2530 c3        1 WPH      0.082600
      4 C37         2.2780   -1.2740   -0.8850 c3        1 WPH      0.099800
      5 C38         1.5130   -1.0990   -2.2020 c3        1 WPH      0.108400
      6 O34         1.6040    0.2830   -2.5410 os        1 WPH     -0.380900
      7 C9          1.4680    0.5640   -3.9020 ca        1 WPH      0.078100
      8 C10         2.1760    1.6800   -4.3660 ca        1 WPH     -0.152500
      9 C11         2.0270    2.0640   -5.6950 ca        1 WPH     -0.084500
     10 C8          0.6280   -0.1720   -4.7440 ca        1 WPH     -0.152500
     11 C7          0.4950    0.2190   -6.0720 ca        1 WPH     -0.084500
     12 C6          1.1910    1.3380   -6.5600 ca        1 WPH     -0.009800
     13 C2          1.0520    1.7420   -7.9360 cc        1 WPH      0.030900
     14 O3          0.2010    0.9210   -8.7280 os        1 WPH     -0.303400
     15 C1          1.5790    2.7820   -8.6750 cd        1 WPH     -0.088200
     16 C5          1.0630    2.6520  -10.0110 ca        1 WPH     -0.427400
     17 C4          0.2140    1.4900  -10.0020 ca        1 WPH      0.633600
     18 N12        -0.4710    1.0080  -11.0650 nb        1 WPH     -0.715000
     19 C13        -0.2670    1.7650  -12.1820 ca        1 WPH      0.699900
     20 N14         0.4930    2.8720  -12.3530 nb        1 WPH     -0.770000
     21 C15         1.1800    3.3530  -11.2530 ca        1 WPH      0.755200
     22 N40         1.9350    4.4970  -11.3280 nh        1 WPH     -0.854900
     23 C16         2.1900    5.1810  -12.5730 c3        1 WPH      0.212800
     24 C17         3.0250    6.4530  -12.3860 c3        1 WPH     -0.042100
     25 C18         3.3060    7.0710  -13.7080 ca        1 WPH     -0.119300
     26 C23         4.3430    6.5850  -14.5110 ca        1 WPH     -0.098000
     27 C22         4.6270    7.1570  -15.7450 ca        1 WPH     -0.158000
     28 C19         2.5470    8.1520  -14.1660 ca        1 WPH     -0.098000
     29 C20         2.8100    8.7340  -15.4000 ca        1 WPH     -0.158000
     30 C21         3.8610    8.2460  -16.2150 ca        1 WPH      0.076600
     31 N24         4.1410    8.9070  -17.4250 n         1 WPH     -0.468100
     32 C25         4.6840    8.2560  -18.5590 c         1 WPH      0.770100
     33 O33         5.1260    7.0890  -18.4940 o         1 WPH     -0.606100
     34 N26         4.6890    8.9930  -19.7630 n         1 WPH     -0.460100
     35 C27         5.4090    8.5830  -20.9070 ca        1 WPH      0.054600
     36 C28         5.5410    7.2270  -21.2690 ca        1 WPH     -0.154000
     37 C29         6.2020    6.8850  -22.4470 ca        1 WPH     -0.108500
     38 C30         6.7320    7.8660  -23.2810 ca        1 WPH     -0.145000
     39 C31         6.6040    9.2090  -22.9300 ca        1 WPH     -0.108500
     40 C32         5.9560    9.5750  -21.7550 ca        1 WPH     -0.154000
     41 H1          0.2030    0.0620    1.5100 hx        1 WPH      0.105367
     42 H2         -0.2400   -0.7550   -0.0710 hx        1 WPH      0.105367
     43 H3          0.6040   -1.7090    1.2510 hx        1 WPH      0.105367
     44 H5          3.0380   -1.2280    1.7050 hx        1 WPH      0.105367
     45 H6          3.8220    0.1720    0.8140 hx        1 WPH      0.105367
     46 H7          2.5020    0.4930    2.0470 hx        1 WPH      0.105367
     47 H8          2.1380   -2.3260   -0.5100 hx        1 WPH      0.110700
     48 H9          3.3750   -1.0870   -1.0730 hx        1 WPH      0.110700
     49 H10         1.9930   -1.7490   -2.9820 h1        1 WPH      0.082200
     50 H11         0.4310   -1.3770   -2.0930 h1        1 WPH      0.082200
     51 H12         2.8280    2.2460   -3.6870 ha        1 WPH      0.143000
     52 H13         2.5730    2.9430   -6.0710 ha        1 WPH      0.161000
     53 H14         0.0740   -1.0440   -4.3700 ha        1 WPH      0.143000
     54 H15        -0.1630   -0.3500   -6.7510 ha        1 WPH      0.161000
     55 H16         2.2550    3.5590   -8.3250 ha        1 WPH      0.160000
     56 H17        -0.8040    1.4160  -13.0920 h5        1 WPH      0.066100
     57 H18         2.5060    4.7150  -10.5450 hn        1 WPH      0.435800
     58 H19         1.2020    5.4520  -13.0440 h1        1 WPH      0.068200
     59 H20         2.7290    4.4900  -13.2850 h1        1 WPH      0.068200
     60 H21         2.4730    7.1780  -11.7300 hc        1 WPH      0.050200
     61 H22         3.9950    6.2060  -11.8750 hc        1 WPH      0.050200
     62 H23         4.9480    5.7330  -14.1630 ha        1 WPH      0.133500
     63 H24         5.4480    6.7460  -16.3570 ha        1 WPH      0.154000
     64 H25         1.7280    8.5490  -13.5470 ha        1 WPH      0.133500
     65 H26         2.1920    9.5820  -15.7320 ha        1 WPH      0.154000
     66 H27         3.5990    9.7300  -17.5790 hn        1 WPH      0.310500
     67 H28         4.5410    9.9770  -19.7040 hn        1 WPH      0.308500
     68 H29         5.1360    6.4330  -20.6220 ha        1 WPH      0.147500
     69 H30         6.3000    5.8220  -22.7160 ha        1 WPH      0.136000
     70 H31         7.2500    7.5850  -24.2090 ha        1 WPH      0.136000
     71 H32         7.0220    9.9910  -23.5820 ha        1 WPH      0.136000
     72 H33         5.8700   10.6420  -21.5000 ha        1 WPH      0.147500
     73 H361        1.7320    0.6090   -0.2640 hn        1 WPH      0.473800
@<TRIPOS>BOND
     1    1    2 1
     2    1   41 1
     3    1   42 1
     4    1   43 1
     5    2    3 1
     6    2    4 1
     7    2   73 1
     8    3   44 1
     9    3   45 1
    10    3   46 1
    11    4    5 1
    12    4   47 1
    13    4   48 1
    14    5    6 1
    15    5   49 1
    16    5   50 1
    17    6    7 1
    18    7    8 ar
    19    7   10 ar
    20    8    9 ar
    21    8   51 1
    22    9   12 ar
    23    9   52 1
    24   10   11 ar
    25   10   53 1
    26   11   12 ar
    27   11   54 1
    28   12   13 1
    29   13   14 1
    30   13   15 2
    31   14   17 1
    32   15   16 1
    33   15   55 1
    34   16   17 ar
    35   16   21 ar
    36   17   18 ar
    37   18   19 ar
    38   19   20 ar
    39   19   56 1
    40   20   21 ar
    41   21   22 1
    42   22   23 1
    43   22   57 1
    44   23   24 1
    45   23   58 1
    46   23   59 1
    47   24   25 1
    48   24   60 1
    49   24   61 1
    50   25   26 ar
    51   25   28 ar
    52   26   27 ar
    53   26   62 1
    54   27   30 ar
    55   27   63 1
    56   28   29 ar
    57   28   64 1
    58   29   30 ar
    59   29   65 1
    60   30   31 1
    61   31   32 1
    62   31   66 1
    63   32   33 2
    64   32   34 1
    65   34   35 1
    66   34   67 1
    67   35   36 ar
    68   35   40 ar
    69   36   37 ar
    70   36   68 1
    71   37   38 ar
    72   37   69 1
    73   38   39 ar
    74   38   70 1
    75   39   40 ar
    76   39   71 1
    77   40   72 1
@<TRIPOS>SUBSTRUCTURE
     1 WPH         1 TEMP              0 ****  ****    0 ROOT
