@<TRIPOS>MOLECULE
molecule
   89    91     1     0     0
SMALL
bcc


@<TRIPOS>ATOM
      1 C1           0.0000     0.0000     0.0000 ca         1 WPI       0.047600
      2 C2           1.3910     0.0000     0.0000 ca         1 WPI       0.158100
      3 C3          -0.6980     0.0070     1.2040 ca         1 WPI       0.158100
      4 O4          -0.6790    -0.0000    -1.1790 os         1 WPI      -0.323900
      5 C5           2.0840     0.0000     1.1980 ca         1 WPI      -0.245750
      6 O6           2.0710    -0.0010    -1.1780 os         1 WPI      -0.311900
      7 C7          -0.0090     0.0080     2.4040 ca         1 WPI      -0.245750
      8 O8          -2.0580     0.0120     1.2000 os         1 WPI      -0.311900
      9 C9          -1.0030    -1.2730    -1.7400 c3         1 WPI       0.135200
     10 C10          1.3860     0.0010     2.4070 ca         1 WPI       0.014700
     11 C11          3.4980    -0.0010    -1.1030 c3         1 WPI       0.126700
     12 C12         -2.7100     0.0190     2.4720 c3         1 WPI       0.126700
     13 C13          2.1240     0.0020     3.6880 ce         1 WPI      -0.123700
     14 C14          3.4500    -0.0030     3.6890 c2         1 WPI      -0.156200
     15 C16          4.2020    -0.0030     4.9940 c3         1 WPI      -0.048700
     16 C18          5.1680    -1.1880     5.0280 c3         1 WPI      -0.101400
     17 C19          5.9310    -1.1880     6.3530 c3         1 WPI       0.164300
     18 N20          6.8600    -2.3260     6.3850 n3         1 WPI      -0.738100
     19 C21          7.8710    -2.2140     5.3150 c3         1 WPI       0.149800
     20 C22          6.1630    -3.5410     6.4030 c3         1 WPI       0.167800
     21 C23          9.1190    -2.9260     5.7730 c3         1 WPI       0.149800
     22 C24          7.1130    -4.7360     6.6390 c3         1 WPI      -0.087400
     23 N25          9.1660    -4.3220     5.2910 n3         1 WPI      -0.738100
     24 C26          7.8650    -5.0230     5.3640 c3         1 WPI       0.167800
     25 C27          9.7270    -4.3910     3.9350 c3         1 WPI       0.164300
     26 C28          9.9930    -5.8530     3.5670 c3         1 WPI      -0.101400
     27 C29         10.5760    -5.9250     2.1560 c3         1 WPI      -0.048700
     28 C30         10.8380    -7.3640     1.7920 c2         1 WPI      -0.156200
     29 C31         10.3110    -7.8770     0.6890 ce         1 WPI      -0.123700
     30 C33         10.5670    -9.2880     0.3340 ca         1 WPI       0.014700
     31 C35         10.0130    -9.8280    -0.8260 ca         1 WPI      -0.245750
     32 C36         11.3680   -10.0810     1.1570 ca         1 WPI      -0.245750
     33 C37         10.2550   -11.1500    -1.1570 ca         1 WPI       0.158100
     34 C38         11.6070   -11.4020     0.8220 ca         1 WPI       0.158100
     35 C39         11.0480   -11.9400    -0.3330 ca         1 WPI       0.047600
     36 O40          9.7150   -11.6770    -2.2880 os         1 WPI      -0.311900
     37 O41         12.3890   -12.1750     1.6230 os         1 WPI      -0.311900
     38 O42         11.2840   -13.2390    -0.6590 os         1 WPI      -0.323900
     39 C43          8.9100   -10.8090    -3.0880 c3         1 WPI       0.126700
     40 C44         12.9290   -11.5580     2.7930 c3         1 WPI       0.126700
     41 C45         10.3690   -14.2120    -0.1530 c3         1 WPI       0.135200
     42 H1           3.1670    -0.0020     1.1980 ha         1 WPI       0.140500
     43 H2          -0.5530     0.0110     3.3410 ha         1 WPI       0.140500
     44 H3          -0.6430    -1.3200    -2.7610 h1         1 WPI       0.033200
     45 H4          -0.5340    -2.0550    -1.1560 h1         1 WPI       0.033200
     46 H5          -2.0770    -1.4090    -1.7300 h1         1 WPI       0.033200
     47 H6           3.9120    -0.0090    -2.1040 h1         1 WPI       0.041950
     48 H7           3.8310    -0.8820    -0.5670 h1         1 WPI       0.041950
     49 H8           3.8320     0.8870    -0.5810 h1         1 WPI       0.041950
     50 H9          -2.4550     0.9290     3.0030 h1         1 WPI       0.041950
     51 H10         -3.7830    -0.0260     2.3280 h1         1 WPI       0.041950
     52 H11         -2.3860    -0.8390     3.0490 h1         1 WPI       0.041950
     53 H12          1.5820     0.0060     4.6250 ha         1 WPI       0.131000
     54 H14          3.9920    -0.0080     2.7510 ha         1 WPI       0.128500
     55 H16          4.7600     0.9210     5.0890 hc         1 WPI       0.049200
     56 H17          3.5000    -0.0860     5.8150 hc         1 WPI       0.049200
     57 H18          4.6090    -2.1120     4.9330 hc         1 WPI       0.049950
     58 H19          5.8690    -1.1050     4.2070 hc         1 WPI       0.049950
     59 H20          5.2290    -1.2720     7.1740 h1         1 WPI       0.042950
     60 H21          6.4890    -0.2640     6.4480 h1         1 WPI       0.042950
     61 H23          8.0930    -1.1700     5.1310 h1         1 WPI       0.051200
     62 H24          7.4970    -2.6790     4.4100 h1         1 WPI       0.051200
     63 H25          5.4270    -3.5130     7.1980 h1         1 WPI       0.030950
     64 H26          5.6600    -3.6730     5.4530 h1         1 WPI       0.030950
     65 H27          9.9850    -2.3950     5.3960 h1         1 WPI       0.051200
     66 H28          9.1450    -2.9280     6.8560 h1         1 WPI       0.051200
     67 H29          7.8150    -4.4900     7.4260 hc         1 WPI       0.061700
     68 H30          6.5340    -5.6080     6.9210 hc         1 WPI       0.061700
     69 H32          7.2560    -4.7130     4.5240 h1         1 WPI       0.030950
     70 H33          8.0420    -6.0900     5.2980 h1         1 WPI       0.030950
     71 H34          9.0230    -3.9640     3.2310 h1         1 WPI       0.042950
     72 H35         10.6560    -3.8350     3.9000 h1         1 WPI       0.042950
     73 H36          9.0640    -6.4090     3.6030 hc         1 WPI       0.049950
     74 H37         10.6970    -6.2800     4.2710 hc         1 WPI       0.049950
     75 H38          9.8730    -5.4970     1.4520 hc         1 WPI       0.049200
     76 H39         11.5060    -5.3690     2.1200 hc         1 WPI       0.049200
     77 H40         11.4570    -7.9800     2.4330 ha         1 WPI       0.128500
     78 H42          9.6910    -7.2610     0.0480 ha         1 WPI       0.131000
     79 H44          9.3950    -9.2130    -1.4690 ha         1 WPI       0.140500
     80 H45         11.8040    -9.6620     2.0560 ha         1 WPI       0.140500
     81 H46          8.0690   -10.4560    -2.5040 h1         1 WPI       0.041950
     82 H47          8.5470   -11.3500    -3.9540 h1         1 WPI       0.041950
     83 H48          9.5040    -9.9630    -3.4140 h1         1 WPI       0.041950
     84 H49         12.1210   -11.2320     3.4360 h1         1 WPI       0.041950
     85 H50         13.5470   -12.2720     3.3250 h1         1 WPI       0.041950
     86 H51         13.5300   -10.7040     2.5060 h1         1 WPI       0.041950
     87 H52         10.9100   -15.1110     0.1170 h1         1 WPI       0.033200
     88 H53          9.6350   -14.4480    -0.9140 h1         1 WPI       0.033200
     89 H54          9.8680   -13.8160     0.7220 h1         1 WPI       0.033200
@<TRIPOS>BOND
     1    12     8 1
     2     8     3 1
     3     7     3 ar
     4     7    10 ar
     5     3     1 ar
     6    13    10 1
     7    13    14 2
     8    10     5 ar
     9     1     4 1
    10     1     2 ar
    11     9     4 1
    12     5     2 ar
    13     2     6 1
    14    14    15 1
    15    19    21 1
    16    19    18 1
    17    15    16 1
    18    21    23 1
    19    17    16 1
    20    17    18 1
    21    18    20 1
    22     6    11 1
    23    23    25 1
    24    23    24 1
    25    25    26 1
    26    20    22 1
    27    24    22 1
    28    26    27 1
    29    27    28 1
    30    29    30 1
    31    29    28 2
    32    32    30 ar
    33    32    34 ar
    34    37    40 1
    35    37    34 1
    36    30    31 ar
    37    34    35 ar
    38    31    33 ar
    39    35    33 ar
    40    35    38 1
    41    33    36 1
    42    38    41 1
    43    36    39 1
    44     5    42 1
    45     7    43 1
    46     9    44 1
    47     9    45 1
    48     9    46 1
    49    11    47 1
    50    11    48 1
    51    11    49 1
    52    12    50 1
    53    12    51 1
    54    12    52 1
    55    13    53 1
    56    14    54 1
    57    15    55 1
    58    15    56 1
    59    16    57 1
    60    16    58 1
    61    17    59 1
    62    17    60 1
    63    19    61 1
    64    19    62 1
    65    20    63 1
    66    20    64 1
    67    21    65 1
    68    21    66 1
    69    22    67 1
    70    22    68 1
    71    24    69 1
    72    24    70 1
    73    25    71 1
    74    25    72 1
    75    26    73 1
    76    26    74 1
    77    27    75 1
    78    27    76 1
    79    28    77 1
    80    29    78 1
    81    31    79 1
    82    32    80 1
    83    39    81 1
    84    39    82 1
    85    39    83 1
    86    40    84 1
    87    40    85 1
    88    40    86 1
    89    41    87 1
    90    41    88 1
    91    41    89 1
@<TRIPOS>SUBSTRUCTURE
     1 WPI         1 TEMP              0 ****  ****    0 ROOT
