@<TRIPOS>MOLECULE
WPI
   89    95     1     0     0
SMALL
bcc


@<TRIPOS>ATOM
      1 C1           0.0000     0.0000     0.0000 c2         1 WPI      -0.030000
      2 C2           1.3910     0.0000     0.0000 c2         1 WPI       0.142750
      3 C3          -0.6980     0.0070     1.2040 c2         1 WPI       0.142750
      4 O4          -0.6790    -0.0000    -1.1790 os         1 WPI      -0.190000
      5 C5           2.0840     0.0000     1.1980 c2         1 WPI      -0.291000
      6 O6           2.0710    -0.0010    -1.1780 os         1 WPI      -0.174000
      7 C7          -0.0090     0.0080     2.4040 c2         1 WPI      -0.291000
      8 O8          -2.0580     0.0120     1.2000 os         1 WPI      -0.174000
      9 C9          -1.0030    -1.2730    -1.7400 c3         1 WPI       0.059000
     10 C10          1.3860     0.0010     2.4070 c3         1 WPI       0.061000
     11 C11          3.4980    -0.0010    -1.1030 c3         1 WPI       0.050500
     12 C12         -2.7100     0.0190     2.4720 c3         1 WPI       0.050500
     13 C13          2.1240     0.0020     3.6880 c2         1 WPI      -0.091500
     14 C14          3.4500    -0.0030     3.6890 c2         1 WPI      -0.163500
     15 C16          4.2020    -0.0030     4.9940 DU         1 WPI      -0.027500
     16 C18          5.1680    -1.1880     5.0280 c3         1 WPI      -0.153000
     17 C19          5.9310    -1.1880     6.3530 c3         1 WPI      -0.089000
     18 N20          6.8600    -2.3260     6.3850 n3         1 WPI      -0.062000
     19 C21          7.8710    -2.2140     5.3150 c3         1 WPI      -0.108500
     20 C22          6.1630    -3.5410     6.4030 c3         1 WPI      -0.093500
     21 C23          9.1190    -2.9260     5.7730 c3         1 WPI      -0.108500
     22 C24          7.1130    -4.7360     6.6390 c3         1 WPI      -0.114000
     23 N25          9.1660    -4.3220     5.2910 n3         1 WPI      -0.062000
     24 C26          7.8650    -5.0230     5.3640 c3         1 WPI      -0.093500
     25 C27          9.7270    -4.3910     3.9350 c3         1 WPI      -0.089000
     26 C28          9.9930    -5.8530     3.5670 c3         1 WPI      -0.153000
     27 C29         10.5760    -5.9250     2.1560 DU         1 WPI      -0.027500
     28 C30         10.8380    -7.3640     1.7920 c2         1 WPI      -0.163500
     29 C31         10.3110    -7.8770     0.6890 c2         1 WPI      -0.091500
     30 C33         10.5670    -9.2880     0.3340 c3         1 WPI       0.061000
     31 C35         10.0130    -9.8280    -0.8260 c2         1 WPI      -0.291000
     32 C36         11.3680   -10.0810     1.1570 c2         1 WPI      -0.291000
     33 C37         10.2550   -11.1500    -1.1570 c2         1 WPI       0.142750
     34 C38         11.6070   -11.4020     0.8220 c2         1 WPI       0.142750
     35 C39         11.0480   -11.9400    -0.3330 c2         1 WPI      -0.030000
     36 O40          9.7150   -11.6770    -2.2880 os         1 WPI      -0.174000
     37 O41         12.3890   -12.1750     1.6230 os         1 WPI      -0.174000
     38 O42         11.2840   -13.2390    -0.6590 os         1 WPI      -0.190000
     39 C43          8.9100   -10.8090    -3.0880 c3         1 WPI       0.050500
     40 C44         12.9290   -11.5580     2.7930 c3         1 WPI       0.050500
     41 C45         10.3690   -14.2120    -0.1530 c3         1 WPI       0.059000
     42 H1           3.1670    -0.0020     1.1980 ha         1 WPI       0.139500
     43 H2          -0.5530     0.0110     3.3410 ha         1 WPI       0.139500
     44 H3          -0.8110    -2.0490    -1.0100 h1         1 WPI       0.029000
     45 H4          -2.0500    -1.2890    -2.0170 h1         1 WPI       0.029000
     46 H5          -0.3940    -1.4460    -2.6190 h1         1 WPI       0.029000
     47 H6           3.8310    -0.8750    -0.5560 h1         1 WPI       0.037917
     48 H7           3.8330     0.8940    -0.5920 h1         1 WPI       0.037917
     49 H8           3.9120    -0.0220    -2.1040 h1         1 WPI       0.037917
     50 H9          -2.4060     0.8980     3.0290 h1         1 WPI       0.037917
     51 H10         -3.7840     0.0370     2.3270 h1         1 WPI       0.037917
     52 H11         -2.4350    -0.8710     3.0240 h1         1 WPI       0.037917
     53 H12          1.9820     0.8760     3.0630 DU         1 WPI       0.122000
     54 H14          3.5990     0.8730     4.3090 DU         1 WPI       0.094000
     55 H16          4.7600     0.9210     5.0890 ha         1 WPI       0.060250
     56 H17          3.5000    -0.0860     5.8150 ha         1 WPI       0.060250
     57 H18          5.8690    -1.1050     4.2070 hc         1 WPI       0.071500
     58 H19          4.6090    -2.1120     4.9330 hc         1 WPI       0.071500
     59 H20          6.4890    -0.2640     6.4480 h1         1 WPI       0.054750
     60 H21          5.2290    -1.2720     7.1740 h1         1 WPI       0.054750
     61 H23          7.4970    -2.6790     4.4100 h1         1 WPI       0.066250
     62 H24          8.0930    -1.1700     5.1310 h1         1 WPI       0.066250
     63 H25          5.6600    -3.6730     5.4530 h1         1 WPI       0.051000
     64 H26          5.4270    -3.5130     7.1980 h1         1 WPI       0.051000
     65 H27          9.1450    -2.9280     6.8560 h1         1 WPI       0.066250
     66 H28          9.9850    -2.3950     5.3960 h1         1 WPI       0.066250
     67 H29          7.8150    -4.4900     7.4260 hc         1 WPI       0.072000
     68 H30          6.5340    -5.6080     6.9210 hc         1 WPI       0.072000
     69 H32          7.2560    -4.7130     4.5240 h1         1 WPI       0.051000
     70 H33          8.0420    -6.0900     5.2980 h1         1 WPI       0.051000
     71 H34         10.6560    -3.8350     3.9000 h1         1 WPI       0.054750
     72 H35          9.0230    -3.9640     3.2310 h1         1 WPI       0.054750
     73 H36          9.0640    -6.4090     3.6030 hc         1 WPI       0.071500
     74 H37         10.6970    -6.2800     4.2710 hc         1 WPI       0.071500
     75 H38          9.8730    -5.4970     1.4520 ha         1 WPI       0.060250
     76 H39         11.5060    -5.3690     2.1200 ha         1 WPI       0.060250
     77 H40         11.3350    -6.5170     1.3350 DU         1 WPI       0.094000
     78 H42          9.8130    -8.7230     1.1460 DU         1 WPI       0.122000
     79 H44          9.3950    -9.2130    -1.4690 ha         1 WPI       0.139500
     80 H45         11.8040    -9.6620     2.0560 ha         1 WPI       0.139500
     81 H46          9.5020    -9.9590    -3.4070 h1         1 WPI       0.037917
     82 H47          8.5540   -11.3470    -3.9580 h1         1 WPI       0.037917
     83 H48          8.0640   -10.4630    -2.5070 h1         1 WPI       0.037917
     84 H49         13.5560   -10.7230     2.5040 h1         1 WPI       0.037917
     85 H50         13.5210   -12.2810     3.3420 h1         1 WPI       0.037917
     86 H51         12.1210   -11.2030     3.4200 h1         1 WPI       0.037917
     87 H52         10.8930   -14.8930     0.5070 h1         1 WPI       0.029000
     88 H53          9.5790   -13.7140     0.3960 h1         1 WPI       0.029000
     89 H54          9.9400   -14.7680    -0.9780 h1         1 WPI       0.029000
@<TRIPOS>BOND
     1     1     2 1   
     2     1     3 1   
     3     1     4 1   
     4     2     5 1   
     5     2     6 1   
     6     3     7 1   
     7     3     8 1   
     8     4     9 1   
     9     5    10 1   
    10     5    42 1   
    11     6    11 1   
    12     7    10 1   
    13     7    43 1   
    14     8    12 1   
    15     9    44 1   
    16     9    45 1   
    17     9    46 1   
    18    10    13 1   
    19    10    53 1   
    20    11    47 1   
    21    11    48 1   
    22    11    49 1   
    23    12    50 1   
    24    12    51 1   
    25    12    52 1   
    26    13    14 1   
    27    13    53 1   
    28    14    15 1   
    29    14    54 1   
    30    15    16 1   
    31    15    54 1   
    32    15    55 1   
    33    15    56 1   
    34    16    17 1   
    35    16    57 1   
    36    16    58 1   
    37    17    18 1   
    38    17    59 1   
    39    17    60 1   
    40    18    19 1   
    41    18    20 1   
    42    19    21 1   
    43    19    61 1   
    44    19    62 1   
    45    20    22 1   
    46    20    63 1   
    47    20    64 1   
    48    21    23 1   
    49    21    65 1   
    50    21    66 1   
    51    22    24 1   
    52    22    67 1   
    53    22    68 1   
    54    23    24 1   
    55    23    25 1   
    56    24    69 1   
    57    24    70 1   
    58    25    26 1   
    59    25    71 1   
    60    25    72 1   
    61    26    27 1   
    62    26    73 1   
    63    26    74 1   
    64    27    28 1   
    65    27    75 1   
    66    27    76 1   
    67    27    77 1   
    68    28    29 1   
    69    28    77 1   
    70    29    30 1   
    71    29    78 1   
    72    30    31 1   
    73    30    32 1   
    74    30    78 1   
    75    31    33 1   
    76    31    79 1   
    77    32    34 1   
    78    32    80 1   
    79    33    35 1   
    80    33    36 1   
    81    34    35 1   
    82    34    37 1   
    83    35    38 1   
    84    36    39 1   
    85    37    40 1   
    86    38    41 1   
    87    39    81 1   
    88    39    82 1   
    89    39    83 1   
    90    40    84 1   
    91    40    85 1   
    92    40    86 1   
    93    41    87 1   
    94    41    88 1   
    95    41    89 1   
@<TRIPOS>SUBSTRUCTURE
     1 WPI         1 TEMP              0 ****  ****    0 ROOT
