@<TRIPOS>MOLECULE
molecule
   26    26     1     0     0
SMALL
bcc


@<TRIPOS>ATOM
      1 CAX          0.0000     0.0000     0.0000 c3         1 WPL      -0.074700
      2 CAP          1.5300     0.0000     0.0000 c3         1 WPL      -0.073400
      3 CBA          2.0410     0.0000     1.4430 c3         1 WPL       0.050800
      4 CAU          3.5470    -0.0010     1.4420 c          1 WPL       0.867600
      5 OAF          4.1510     0.4420     0.4930 o          1 WPL      -0.835300
      6 OAD          4.2190    -0.4920     2.4960 o          1 WPL      -0.835300
      7 OAI          1.5650    -1.1670     2.1160 oh         1 WPL      -0.631800
      8 CAO          1.5310     1.2490     2.1640 c3         1 WPL      -0.073400
      9 CAW          0.0020     1.2480     2.1640 c3         1 WPL       0.123100
     10 OAG         -0.4750     2.4160     2.8380 oh         1 WPL      -0.629800
     11 CAY         -0.5100     1.2490     0.7220 c3         1 WPL       0.153100
     12 OAH         -1.9380     1.2500     0.7230 oh         1 WPL      -0.618800
     13 CAJ         -0.5100     0.0000    -1.4420 c3         1 WPL      -0.084100
     14 H1          -0.3590    -0.8830     0.5140 hc         1 WPL       0.069700
     15 H2           1.8900    -0.8860    -0.5090 hc         1 WPL       0.052700
     16 H3           1.8900     0.8860    -0.5090 hc         1 WPL       0.052700
     17 H5           2.2430    -1.8220     2.1290 ho         1 WPL       0.417000
     18 H6           1.8910     2.1330     1.6510 hc         1 WPL       0.058700
     19 H7           1.8910     1.2460     3.1860 hc         1 WPL       0.058700
     20 H8          -0.3570     0.3610     2.6720 h1         1 WPL       0.056700
     21 H9          -0.7460     2.1860     3.7110 ho         1 WPL       0.393000
     22 H10         -0.1440     2.1320     0.2120 h1         1 WPL       0.034700
     23 H11         -2.2520     2.1200     0.5430 ho         1 WPL       0.392000
     24 H12         -0.0350    -0.8020    -1.9930 hc         1 WPL       0.025033
     25 H13         -0.2740     0.9490    -1.9080 hc         1 WPL       0.025033
     26 H14         -1.5840    -0.1460    -1.4450 hc         1 WPL       0.025033
@<TRIPOS>BOND
     1     5     4 1
     2     6     4 1
     3     4     3 1
     4     3     7 1
     5     3     2 1
     6     3     8 1
     7     2     1 1
     8     8     9 1
     9     1    13 1
    10     1    11 1
    11     9    11 1
    12     9    10 1
    13    11    12 1
    14     1    14 1
    15     2    15 1
    16     2    16 1
    17     7    17 1
    18     8    18 1
    19     8    19 1
    20     9    20 1
    21    10    21 1
    22    11    22 1
    23    12    23 1
    24    13    24 1
    25    13    25 1
    26    13    26 1
@<TRIPOS>SUBSTRUCTURE
     1 WPL         1 TEMP              0 ****  ****    0 ROOT
