@<TRIPOS>MOLECULE
WPL
   29    29     1     0     0
SMALL
bcc


@<TRIPOS>ATOM
      1 CAX        -0.0430   -0.0890   -0.0070 c3        1 WPL     -0.092700
      2 CAP         1.4630   -0.2260    0.0910 c3        1 WPL     -0.093400
      3 CBA         1.9470   -0.1570    1.5410 c3        1 WPL      0.011800
      4 CAU         3.5230   -0.1310    1.4920 c         1 WPL      0.907600
      5 OAF         4.0980   -0.9920    2.2050 o         1 WPL     -0.799300
      6 OAD         4.0520    0.7120    0.7260 o         1 WPL     -0.799300
      7 OAI         1.4640   -1.3050    2.2180 oh        1 WPL     -0.647800
      8 CAO         1.4390    1.1010    2.2350 c3        1 WPL     -0.107400
      9 CAW        -0.0680    1.2450    2.1090 c3        1 WPL      0.113100
     10 OAG        -0.5750    2.4270    2.7040 oh        1 WPL     -0.609800
     11 CAY        -0.4850    1.2360    0.6240 c3        1 WPL      0.123100
     12 OAH        -1.8920    1.3450    0.4620 oh        1 WPL     -0.637800
     13 CAJ        -0.5230   -0.1050   -1.4580 c3        1 WPL      0.105800
     14 H1         -0.5300   -0.9290    0.5660 hc        1 WPL      0.090700
     15 H2          1.8000   -1.2170   -0.3110 hc        1 WPL      0.053700
     16 H3          1.9820    0.5920   -0.4770 hc        1 WPL      0.053700
     17 H5          2.2300   -1.7050    2.6690 ho        1 WPL      0.446000
     18 H6          1.7110    1.0500    3.3210 hc        1 WPL      0.073200
     19 H7          1.9590    1.9860    1.7830 hc        1 WPL      0.073200
     20 H8         -0.5910    0.4060    2.6500 h1        1 WPL      0.094700
     21 H9          0.0710    3.1300    2.5600 ho        1 WPL      0.410000
     22 H10        -0.0050    2.1020    0.0870 h1        1 WPL      0.048700
     23 H11        -2.2280    1.8410    1.2230 ho        1 WPL      0.438000
     24 H12        -1.6500   -0.0650   -1.4860 hx        1 WPL      0.109200
     25 H13        -0.1040    0.7820   -2.0140 hx        1 WPL      0.109200
     26 N1         -0.0730   -1.3390   -2.1720 n4        1 WPL     -0.839600
     27 HN1        -0.4510   -1.3660   -3.1190 hn        1 WPL      0.455800
     28 HN2         0.9550   -1.3500   -2.2090 hn        1 WPL      0.455800
     29 H131       -0.3820   -2.1670   -1.6530 hn        1 WPL      0.455800
@<TRIPOS>BOND
     1    1    2 1   
     2    1   11 1   
     3    1   13 1   
     4    1   14 1   
     5    2    3 1   
     6    2   15 1   
     7    2   16 1   
     8    3    4 1   
     9    3    7 1   
    10    3    8 1   
    11    4    5 1   
    12    4    6 1   
    13    7   17 1   
    14    8    9 1   
    15    8   18 1   
    16    8   19 1   
    17    9   10 1   
    18    9   11 1   
    19    9   20 1   
    20   10   21 1   
    21   11   12 1   
    22   11   22 1   
    23   12   23 1   
    24   13   24 1   
    25   13   25 1   
    26   13   26 1   
    27   26   27 1   
    28   26   28 1   
    29   26   29 1   
@<TRIPOS>SUBSTRUCTURE
     1 WPL         1 TEMP              0 ****  ****    0 ROOT
