@<TRIPOS>MOLECULE
molecule
   62    65     1     0     0
SMALL
bcc


@<TRIPOS>ATOM
      1 C            0.0000     0.0000     0.0000 c          1 WPP       0.688500
      2 N            2.0890     1.2200    -0.5670 ns         1 WPP      -0.541900
      3 O           -0.8640    -0.1200    -0.8420 o          1 WPP      -0.526500
      4 CA           1.5100     0.0000     0.0000 cy         1 WPP      -0.029300
      5 CB           1.4730     0.0000     1.5250 cy         1 WPP       0.147800
      6 CAC          4.1430     3.9570    -0.6100 ca         1 WPP      -0.103500
      7 CAE         -0.4850     1.4880     1.8310 c3         1 WPP      -0.044300
      8 CAF          0.4230     2.0310     2.9630 c3         1 WPP       0.107100
      9 CAG          3.8440     3.1690    -4.6330 c          1 WPP       0.776100
     10 CAH          0.1290     1.3360     4.2930 c3         1 WPP      -0.069600
     11 CAI          0.2970     3.5500     3.0940 c3         1 WPP      -0.069600
     12 CAJ          4.7900     1.5700    -6.2030 c3         1 WPP       0.069000
     13 CAK          2.6250     1.2000    -1.8040 c          1 WPP       0.660100
     14 CAL          7.2010     1.7060    -9.5930 c3         1 WPP      -0.114100
     15 CAM          3.2220     2.4550    -2.3870 c3         1 WPP       0.108000
     16 CAN          4.6150     3.9500    -6.6920 c          1 WPP       0.633500
     17 CAO         -1.8820     1.2920     2.3620 c          1 WPP       0.898600
     18 CAP          5.1140     3.6500    -8.0700 c          1 WPP       0.636500
     19 CAR          4.5160     1.3180    -7.6830 c3         1 WPP       0.091000
     20 CAS          4.3520     2.9290    -1.5090 ca         1 WPP      -0.104300
     21 CAT          5.5960     2.3340    -1.6030 ca         1 WPP      -0.103500
     22 CAU          6.6330     2.7690    -0.7970 ca         1 WPP      -0.126500
     23 CAV          6.4240     3.7980     0.1010 ca         1 WPP      -0.122000
     24 CAW          5.1800     4.3920     0.1950 ca         1 WPP      -0.126500
     25 NAY          3.7340     2.1730    -3.7310 ns         1 WPP      -0.581900
     26 NAZ          4.4060     2.9320    -5.8340 n          1 WPP      -0.500400
     27 NBA          5.1160     2.3730    -8.5020 n          1 WPP      -0.494800
     28 NBB          0.0240     0.1990     1.3450 nj         1 WPP      -0.374800
     29 OBC          2.6260     0.1720    -2.4480 o          1 WPP      -0.630100
     30 OBE         -2.7090     2.3420     2.4770 o          1 WPP      -0.815800
     31 OBF         -2.2570     0.1900     2.6830 o          1 WPP      -0.815800
     32 OBG          3.4370     4.2820    -4.3610 o          1 WPP      -0.583100
     33 SBJ          2.0720     1.5480     2.3000 ss         1 WPP      -0.457200
     34 HN           2.0690     2.0730    -0.0440 hn         1 WPP       0.351500
     35 HA           1.9250    -0.9150    -0.4060 h1         1 WPP       0.094700
     36 HB           1.7420    -0.9320     2.0070 h2         1 WPP       0.112700
     37 HAC          3.1680     4.4230    -0.5370 ha         1 WPP       0.133000
     38 HAE         -0.5020     2.1980     1.0130 h1         1 WPP       0.055700
     39 HAH          0.0290     0.2700     4.1290 hc         1 WPP       0.049367
     40 HAHA        -0.7920     1.7260     4.7090 hc         1 WPP       0.049367
     41 HAHB         0.9440     1.5190     4.9840 hc         1 WPP       0.049367
     42 HAI         -0.6170     3.7930     3.6220 hc         1 WPP       0.049367
     43 HAIA         1.1460     3.9360     3.6460 hc         1 WPP       0.049367
     44 HAIB         0.2740     3.9970     2.1080 hc         1 WPP       0.049367
     45 HAJ          4.2190     0.8650    -5.6100 h1         1 WPP       0.066700
     46 HAJA         5.8470     1.4330    -6.0090 h1         1 WPP       0.066700
     47 HAL          7.6480     2.4350    -8.9290 hc         1 WPP       0.041700
     48 HALA         7.7090     1.7290   -10.5500 hc         1 WPP       0.041700
     49 HALB         7.2930     0.7180    -9.1590 hc         1 WPP       0.041700
     50 HAM          2.4620     3.2240    -2.4430 h1         1 WPP       0.108700
     51 HAQ          5.2110     1.1830   -10.2200 h1         1 WPP       0.061200
     52 HAQA         5.6280     2.8850   -10.4650 h1         1 WPP       0.061200
     53 HAR          4.9400     0.3630    -7.9670 h1         1 WPP       0.061200
     54 HARA         3.4460     1.3040    -7.8500 h1         1 WPP       0.061200
     55 HAT          5.7590     1.5280    -2.3080 ha         1 WPP       0.133000
     56 HAU          7.6080     2.3020    -0.8700 ha         1 WPP       0.128500
     57 HAV          7.2360     4.1380     0.7320 ha         1 WPP       0.125000
     58 HAW          5.0170     5.1990     0.9000 ha         1 WPP       0.128500
     59 HNAY         3.9680     1.2350    -3.9910 hn         1 WPP       0.329500
     60 OBH          5.5110     4.5440    -8.7890 o          1 WPP      -0.586500
     61 CAQ          5.7200     2.0400    -9.7940 c3         1 WPP       0.104000
     62 OBI          4.4000     5.0950    -6.3510 o          1 WPP      -0.497500
@<TRIPOS>BOND
     1     1     3 2
     2     1     4 1
     3     1    28 1
     4     2     4 1
     5     2    13 1
     6     4     5 1
     7     5    28 1
     8     5    33 1
     9     6    20 ar
    10     6    24 ar
    11     7     8 1
    12     7    17 1
    13     7    28 1
    14     8    10 1
    15     8    11 1
    16     8    33 1
    17     9    25 1
    18     9    26 1
    19     9    32 2
    20    12    19 1
    21    12    26 1
    22    13    15 1
    23    13    29 2
    24    14    61 1
    25    15    20 1
    26    15    25 1
    27    16    18 1
    28    16    26 1
    29    16    62 2
    30    17    30 1
    31    17    31 1
    32    18    27 1
    33    18    60 2
    34    61    27 1
    35    19    27 1
    36    20    21 ar
    37    21    22 ar
    38    22    23 ar
    39    23    24 ar
    40     2    34 1
    41     4    35 1
    42     5    36 1
    43     6    37 1
    44     7    38 1
    45    10    39 1
    46    10    40 1
    47    10    41 1
    48    11    42 1
    49    11    43 1
    50    11    44 1
    51    12    45 1
    52    12    46 1
    53    14    47 1
    54    14    48 1
    55    14    49 1
    56    15    50 1
    57    61    51 1
    58    61    52 1
    59    19    53 1
    60    19    54 1
    61    21    55 1
    62    22    56 1
    63    23    57 1
    64    24    58 1
    65    25    59 1
@<TRIPOS>SUBSTRUCTURE
     1 WPP         1 TEMP              0 ****  ****    0 ROOT
