@<TRIPOS>MOLECULE
molecule
   44    43     1     0     0
SMALL
bcc


@<TRIPOS>ATOM
      1 OAE          0.0000     0.0000     0.0000 o          1 WQP      -0.947167
      2 PAD          1.6100     0.0000     0.0000 p5         1 WQP       1.255900
      3 OAA          2.1030     0.0000     1.3960 o          1 WQP      -0.947167
      4 OAC          2.1460    -1.3160    -0.7590 o          1 WQP      -0.947167
      5 OAH          2.1470     1.3130    -0.7600 os         1 WQP      -0.565200
      6 CAN          1.9290     2.6380    -0.2710 c3         1 WQP       0.142100
      7 CAM          3.2570     3.3060    -0.0220 c          1 WQP       0.893600
      8 OAV          4.2830     2.7420    -0.3230 o          1 WQP      -0.890800
      9 OAL          3.3010     4.5250     0.5370 o          1 WQP      -0.890800
     10 CAO          1.1430     3.4420    -1.3090 c3         1 WQP      -0.071400
     11 CAP         -0.2530     2.8360    -1.4720 c3         1 WQP       0.143100
     12 OAW         -0.1410     1.5200    -2.0170 oh         1 WQP      -0.561800
     13 CAQ         -1.0820     3.7110    -2.4140 c3         1 WQP       0.053700
     14 NAI         -0.4110     3.8020    -3.7130 ns         1 WQP      -0.547900
     15 CAF          0.0630     4.9880    -4.1450 c          1 WQP       0.655100
     16 CAG          0.8520     5.0610    -5.4270 c3         1 WQP      -0.175100
     17 OAB         -0.1450     5.9940    -3.5030 o          1 WQP      -0.638100
     18 CAR         -2.4690     3.0900    -2.5990 c3         1 WQP       0.143100
     19 OAX         -3.1230     3.0010    -1.3320 oh         1 WQP      -0.595800
     20 CAS         -3.2970     3.9650    -3.5410 c3         1 WQP       0.138100
     21 OAJ         -3.3330     5.3030    -3.0410 oh         1 WQP      -0.569800
     22 CAT         -4.7210     3.4130    -3.6280 c3         1 WQP       0.122100
     23 OAY         -4.6840     2.0750    -4.1290 oh         1 WQP      -0.599800
     24 CAU         -5.5500     4.2880    -4.5710 c3         1 WQP       0.097400
     25 OAK         -6.9090     3.8430    -4.5630 oh         1 WQP      -0.621800
     26 HAN          1.3670     2.5950     0.6540 h1         1 WQP       0.028700
     27 HAO1         1.0550     4.4690    -0.9780 hc         1 WQP       0.030200
     28 HAO2         1.6630     3.4110    -2.2590 hc         1 WQP       0.030200
     29 HAP         -0.7400     2.7860    -0.5050 h1         1 WQP       0.069700
     30 HAW         -0.9100     1.0210    -1.7960 ho         1 WQP       0.407000
     31 HAQ         -1.1840     4.7020    -1.9900 h1         1 WQP       0.103700
     32 HAI         -0.2990     2.9820    -4.2770 hn         1 WQP       0.317500
     33 HAR         -2.3670     2.0980    -3.0230 h1         1 WQP       0.066700
     34 HAG1         1.3890     6.0000    -5.4670 hc         1 WQP       0.045033
     35 HAG2         1.5570     4.2390    -5.4640 hc         1 WQP       0.045033
     36 HAG3         0.1760     4.9950    -6.2710 hc         1 WQP       0.045033
     37 HAX         -3.3510     2.1030    -1.1580 ho         1 WQP       0.412000
     38 HAS         -2.8470     3.9600    -4.5270 h1         1 WQP       0.037700
     39 HAJ         -3.3580     5.9080    -3.7630 ho         1 WQP       0.379000
     40 HAT         -5.1710     3.4170    -2.6430 h1         1 WQP       0.070700
     41 HAY         -5.4960     1.6410    -3.9250 ho         1 WQP       0.403000
     42 HAU1        -5.1520     4.2140    -5.5760 h1         1 WQP       0.023700
     43 HAU2        -5.5060     5.3180    -4.2400 h1         1 WQP       0.023700
     44 HAK         -7.4290     4.4090    -5.1080 ho         1 WQP       0.385000
@<TRIPOS>BOND
     1     1     2 1
     2     2     3 1
     3     2     4 1
     4     2     5 1
     5     5     6 1
     6     6     7 1
     7     6    10 1
     8     7     8 1
     9     7     9 1
    10    10    11 1
    11    11    12 1
    12    11    13 1
    13    13    14 1
    14    13    18 1
    15    14    15 1
    16    15    16 1
    17    15    17 2
    18    18    19 1
    19    18    20 1
    20    20    21 1
    21    20    22 1
    22    22    23 1
    23    22    24 1
    24    24    25 1
    25     6    26 1
    26    10    27 1
    27    10    28 1
    28    11    29 1
    29    12    30 1
    30    13    31 1
    31    14    32 1
    32    18    33 1
    33    16    34 1
    34    16    35 1
    35    16    36 1
    36    19    37 1
    37    20    38 1
    38    21    39 1
    39    22    40 1
    40    23    41 1
    41    24    42 1
    42    24    43 1
    43    25    44 1
@<TRIPOS>SUBSTRUCTURE
     1 WQP         1 TEMP              0 ****  ****    0 ROOT
