@<TRIPOS>MOLECULE
WQQ
   61    64     1     0     0
SMALL
bcc


@<TRIPOS>ATOM
      1 C36        -0.1150   -0.6450    0.1190 c3        1 WQQ     -0.152400
      2 C31         1.3120   -0.3690   -0.0340 cc        1 WQQ      0.313000
      3 O32         2.0870   -0.3920    1.1430 os        1 WQQ     -0.098100
      4 N33         3.3500   -0.1290    0.8700 nc        1 WQQ     -0.333300
      5 C34         3.4880    0.0770   -0.4550 cd        1 WQQ      0.333600
      6 C35         4.7480    0.3960   -1.1520 c3        1 WQQ     -0.138400
      7 C16         2.1670   -0.0710   -1.0870 cd        1 WQQ     -0.336400
      8 C1          1.8690    0.0370   -2.4930 cd        1 WQQ     -0.135200
      9 C6          1.6750   -1.1210   -3.2540 cd        1 WQQ      0.110000
     10 C2          1.7830    1.3050   -3.1160 cc        1 WQQ      0.200400
     11 C15         2.0070    2.5270   -2.2870 c3        1 WQQ     -0.103900
     12 N3          1.4940    1.4060   -4.4530 n         1 WQQ     -0.216200
     13 C7          1.4060    2.7000   -5.0820 ca        1 WQQ     -0.016400
     14 C12         2.5700    3.3100   -5.5860 ca        1 WQQ     -0.110000
     15 C11         2.4700    4.5580   -6.2070 ca        1 WQQ      0.021400
     16 CL          3.8690    5.2970   -6.8100 cl        1 WQQ     -0.046400
     17 C10         1.2310    5.1970   -6.3360 ca        1 WQQ     -0.090000
     18 C9          0.0860    4.5800   -5.8380 ca        1 WQQ     -0.108000
     19 C8          0.1580    3.3370   -5.2130 ca        1 WQQ     -0.103000
     20 C4          1.2810    0.2560   -5.2660 c         1 WQQ      0.717700
     21 O14         1.0160    0.4150   -6.4780 o         1 WQQ     -0.660500
     22 C5          1.3860   -1.0420   -4.6180 cc        1 WQQ     -0.403400
     23 C17         1.2020   -2.2850   -5.3370 c         1 WQQ      0.587300
     24 O19         1.2450   -3.4220   -4.8700 o         1 WQQ     -0.472100
     25 N18         0.9270   -2.1950   -6.8210 n4        1 WQQ     -0.662800
     26 C20         0.7920   -3.5240   -7.4890 c3        1 WQQ      0.165100
     27 C21         0.5360   -3.3650   -8.9520 ca        1 WQQ     -0.120300
     28 C22         1.6020   -3.1090   -9.8210 ca        1 WQQ     -0.128000
     29 C23         1.3620   -2.9730  -11.1870 ca        1 WQQ     -0.016500
     30 C24         0.0670   -3.0930  -11.7010 ca        1 WQQ     -0.319500
     31 S27        -0.2290   -2.8580  -13.3670 sy        1 WQQ      1.390300
     32 C30        -0.0740   -4.4440  -13.9030 c3        1 WQQ     -0.376300
     33 O29        -1.5490   -2.4280  -13.5190 o         1 WQQ     -0.639800
     34 O28         0.8030   -2.0730  -13.8860 o         1 WQQ     -0.639800
     35 C25        -0.9890   -3.3530  -10.8230 ca        1 WQQ     -0.016500
     36 C26        -0.7620   -3.4890   -9.4530 ca        1 WQQ     -0.128000
     37 H361       -0.2650   -1.6740    0.5390 hc        1 WQQ      0.076033
     38 H362       -0.5760    0.0880    0.8310 hc        1 WQQ      0.076033
     39 H363       -0.6320   -0.5730   -0.8680 hc        1 WQQ      0.076033
     40 H351        5.1700    1.3640   -0.7790 hc        1 WQQ      0.063700
     41 H352        4.5650    0.4800   -2.2510 hc        1 WQQ      0.063700
     42 H353        5.5100   -0.4060   -0.9740 hc        1 WQQ      0.063700
     43 H6          1.7540   -2.1130   -2.7680 ha        1 WQQ      0.184000
     44 H151        2.8950    2.3570   -1.6220 hc        1 WQQ      0.095700
     45 H152        1.1090    2.6920   -1.6370 hc        1 WQQ      0.095700
     46 H153        2.1850    3.4500   -2.8940 hc        1 WQQ      0.095700
     47 H12         3.5520    2.8170   -5.5020 ha        1 WQQ      0.160000
     48 H8         -0.7620    2.8640   -4.8360 ha        1 WQQ      0.150000
     49 H10         1.1620    6.1800   -6.8310 ha        1 WQQ      0.171000
     50 H9         -0.8920    5.0790   -5.9420 ha        1 WQQ      0.161000
     51 H18         0.0700   -1.6370   -6.9570 hn        1 WQQ      0.471300
     52 H201        1.7460   -4.1000   -7.3080 hx        1 WQQ      0.116200
     53 H202       -0.0500   -4.0810   -6.9840 hx        1 WQQ      0.116200
     54 H22         2.6300   -3.0240   -9.4360 ha        1 WQQ      0.146500
     55 H26        -1.6060   -3.7010   -8.7780 ha        1 WQQ      0.146500
     56 H23         2.2000   -2.7490  -11.8740 ha        1 WQQ      0.175500
     57 H25        -2.0200   -3.4310  -11.2180 ha        1 WQQ      0.175500
     58 H301       -0.2440   -4.5150  -15.0110 h1        1 WQQ      0.126367
     59 H302       -0.8080   -5.1490  -13.4420 h1        1 WQQ      0.126367
     60 H303        0.9400   -4.8810  -13.7270 h1        1 WQQ      0.126367
     61 H182        1.6860   -1.6520   -7.2600 hn        1 WQQ      0.471300
@<TRIPOS>BOND
     1    1    2 1   
     2    1   37 1   
     3    1   38 1   
     4    1   39 1   
     5    2    3 1   
     6    2    7 2   
     7    3    4 1   
     8    4    5 2   
     9    5    6 1   
    10    5    7 1   
    11    6   40 1   
    12    6   41 1   
    13    6   42 1   
    14    7    8 1   
    15    8    9 1   
    16    8   10 2   
    17    9   22 2   
    18    9   43 1   
    19   10   11 1   
    20   10   12 1   
    21   11   44 1   
    22   11   45 1   
    23   11   46 1   
    24   12   13 1   
    25   12   20 1   
    26   13   14 ar  
    27   13   19 ar  
    28   14   15 ar  
    29   14   47 1   
    30   15   16 1   
    31   15   17 ar  
    32   17   18 ar  
    33   17   49 1   
    34   18   19 ar  
    35   18   50 1   
    36   19   48 1   
    37   20   21 2   
    38   20   22 1   
    39   22   23 1   
    40   23   24 2   
    41   23   25 1   
    42   25   26 1   
    43   25   51 1   
    44   25   61 1   
    45   26   27 1   
    46   26   52 1   
    47   26   53 1   
    48   27   28 ar  
    49   27   36 ar  
    50   28   29 ar  
    51   28   54 1   
    52   29   30 ar  
    53   29   56 1   
    54   30   31 1   
    55   30   35 ar  
    56   31   32 1   
    57   31   33 2   
    58   31   34 2   
    59   32   58 1   
    60   32   59 1   
    61   32   60 1   
    62   35   36 ar  
    63   35   57 1   
    64   36   55 1   
@<TRIPOS>SUBSTRUCTURE
     1 WQQ         1 TEMP              0 ****  ****    0 ROOT
