@<TRIPOS>MOLECULE
molecule
   22    23     1     0     0
SMALL
bcc


@<TRIPOS>ATOM
      1 C01          0.0000     0.0000     0.0000 c3         1 WQS      -0.167400
      2 C02          1.5300     0.0000     0.0000 c3         1 WQS      -0.085400
      3 C03          2.0610     0.0000     1.4180 c          1 WQS       0.706500
      4 N04          2.7760     1.1270     1.5730 ns         1 WQS      -0.482100
      5 C05          2.7950     1.9040     0.4130 ca         1 WQS       0.048600
      6 C06          3.4090     3.1270     0.1460 ca         1 WQS      -0.158000
      7 C07          3.2830     3.7080    -1.0990 ca         1 WQS      -0.150000
      8 C08          2.5460     3.0830    -2.0910 ca         1 WQS       0.081900
      9 C09          1.9340     1.8670    -1.8320 ca         1 WQS      -0.116000
     10 C10          2.0600     1.2860    -0.5900 ca         1 WQS      -0.104300
     11 F11          2.4260     3.6570    -3.3080 f          1 WQS      -0.156900
     12 O12          1.8750    -0.8560     2.2570 o          1 WQS      -0.534500
     13 C13         -0.5020    -1.3030     0.5680 c          1 WQS       0.883600
     14 O14          0.2830    -2.1450     0.9350 o          1 WQS      -0.836800
     15 O15         -1.8220    -1.5280     0.6660 o          1 WQS      -0.836800
     16 H011        -0.3610     0.1140    -1.0150 hc         1 WQS       0.040200
     17 H012        -0.3610     0.8220     0.6070 hc         1 WQS       0.040200
     18 H02          1.9150    -0.8520    -0.5470 hc         1 WQS       0.105700
     19 H04          3.2420     1.3800     2.4220 hn         1 WQS       0.316500
     20 H06          3.9860     3.6210     0.9180 ha         1 WQS       0.123000
     21 H07          3.7610     4.6580    -1.3010 ha         1 WQS       0.131000
     22 H09          1.3570     1.3740    -2.6060 ha         1 WQS       0.149000
@<TRIPOS>BOND
     1     1     2 1
     2     1    13 1
     3     2     3 1
     4     2    10 1
     5     3     4 1
     6     3    12 2
     7     4     5 1
     8     5     6 ar
     9     5    10 ar
    10     6     7 ar
    11     7     8 ar
    12     8     9 ar
    13     8    11 1
    14     9    10 ar
    15    13    14 1
    16    13    15 1
    17     1    16 1
    18     1    17 1
    19     2    18 1
    20     4    19 1
    21     6    20 1
    22     7    21 1
    23     9    22 1
@<TRIPOS>SUBSTRUCTURE
     1 WQS         1 TEMP              0 ****  ****    0 ROOT
