@<TRIPOS>MOLECULE
WQS
   22    23     1     0     0
SMALL
bcc


@<TRIPOS>ATOM
      1 C01          0.0000     0.0000     0.0000 c3         1 WQS      -0.115400
      2 C02          1.5300     0.0000     0.0000 c3         1 WQS      -0.049400
      3 C03          2.0610     0.0000     1.4180 c          1 WQS       0.607500
      4 N04          2.7760     1.1270     1.5730 ns         1 WQS      -0.051100
      5 C05          2.7950     1.9040     0.4130 ca         1 WQS      -0.091400
      6 C06          3.4090     3.1270     0.1460 ca         1 WQS      -0.126000
      7 C07          3.2830     3.7080    -1.0990 ca         1 WQS      -0.118000
      8 C08          2.5460     3.0830    -2.0910 ca         1 WQS       0.048900
      9 C09          1.9340     1.8670    -1.8320 ca         1 WQS      -0.073000
     10 C10          2.0600     1.2860    -0.5900 ca         1 WQS      -0.109300
     11 F11          2.4260     3.6570    -3.3080 f          1 WQS      -0.139900
     12 O12          1.8750    -0.8560     2.2570 o          1 WQS      -0.562500
     13 C13         -0.5020    -1.3030     0.5680 c          1 WQS       0.967600
     14 O14          0.2830    -2.1450     0.9350 o          1 WQS      -0.884800
     15 O15         -1.8220    -1.5280     0.6660 o          1 WQS      -0.884800
     16 H011        -0.3610     0.1140    -1.0150 hc         1 WQS       0.012200
     17 H012        -0.3610     0.8220     0.6070 hc         1 WQS       0.012200
     18 H02          1.9150    -0.8520    -0.5470 hc         1 WQS       0.072700
     19 H04          3.2420     1.3800     2.4220 hn         1 WQS       0.160500
     20 H06          3.9860     3.6210     0.9180 ha         1 WQS       0.099000
     21 H07          3.7610     4.6580    -1.3010 ha         1 WQS       0.105000
     22 H09          1.3570     1.3740    -2.6060 ha         1 WQS       0.122000
@<TRIPOS>BOND
     1     1     2 1   
     2     1    13 1   
     3     1    16 1   
     4     1    17 1   
     5     2     3 1   
     6     2    10 1   
     7     2    18 1   
     8     3     4 1   
     9     3    12 2   
    10     4     5 1   
    11     4    19 1   
    12     5     6 ar  
    13     5    10 ar  
    14     6     7 ar  
    15     6    20 1   
    16     7     8 ar  
    17     7    21 1   
    18     8     9 ar  
    19     8    11 1   
    20     9    10 ar  
    21     9    22 1   
    22    13    14 1   
    23    13    15 1   
@<TRIPOS>SUBSTRUCTURE
     1 WQS         1 TEMP              0 ****  ****    0 ROOT
