@<TRIPOS>MOLECULE
molecule
   55    56     1     0     0
SMALL
bcc


@<TRIPOS>ATOM
      1 O4           0.0000     0.0000     0.0000 o          1 WR1      -0.569000
      2 C15          1.2270     0.0000     0.0000 c          1 WR1       0.756100
      3 O5           2.0020     0.0000     1.1250 os         1 WR1      -0.430900
      4 C16          1.2970    -0.0000     2.3700 c3         1 WR1       0.202700
      5 C17          2.2880    -0.0010     3.4960 ca         1 WR1      -0.102300
      6 C18          2.7440    -1.2090     4.0120 ca         1 WR1      -0.102500
      7 C19          3.6660    -1.2090     5.0590 ca         1 WR1      -0.134500
      8 C20          4.1270    -0.0010     5.5820 ca         1 WR1      -0.118000
      9 C21          3.6660     1.2080     5.0580 ca         1 WR1      -0.134500
     10 C22          2.7430     1.2080     4.0120 ca         1 WR1      -0.102500
     11 N2           2.0310    -0.0000    -1.1230 ns         1 WR1      -0.564900
     12 C7           1.5240     0.0010    -2.4720 c3         1 WR1       0.064700
     13 C8           2.4940     0.6670    -3.4550 c3         1 WR1      -0.041100
     14 C9           2.4280     2.1730    -3.4090 ca         1 WR1      -0.092300
     15 C10          1.5430     2.8400    -4.2400 ca         1 WR1      -0.118500
     16 C11          1.4810     4.2330    -4.1980 ca         1 WR1      -0.124000
     17 C12          2.3050     4.9410    -3.3250 ca         1 WR1      -0.125000
     18 C13          3.1920     4.2570    -2.4930 ca         1 WR1      -0.124000
     19 C14          3.2540     2.8640    -2.5350 ca         1 WR1      -0.118500
     20 C6           1.2880    -1.4540    -2.8660 c          1 WR1       0.653100
     21 O3           2.0070    -2.3760    -2.4850 o          1 WR1      -0.584100
     22 N1           0.1500    -1.6070    -3.6520 ns         1 WR1      -0.581900
     23 C4          -0.3270    -2.8820    -4.1190 c3         1 WR1       0.020700
     24 C5          -1.0750    -2.7590    -5.4330 c3         1 WR1      -0.098100
     25 C3          -1.2350    -3.4510    -3.0370 c          1 WR1       0.544100
     26 O2          -1.9770    -2.7320    -2.3690 o          1 WR1      -0.487100
     27 C2          -1.2020    -4.9650    -2.8680 c3         1 WR1      -0.175400
     28 C1          -2.1380    -5.4670    -1.7790 c3         1 WR1       0.153400
     29 O1          -3.4860    -5.1470    -2.0980 oh         1 WR1      -0.601800
     30 H161         0.6750    -0.8850     2.4350 h1         1 WR1       0.055200
     31 H162         0.6760     0.8850     2.4350 h1         1 WR1       0.055200
     32 H18          2.3840    -2.1460     3.6040 ha         1 WR1       0.136000
     33 H19          4.0240    -2.1470     5.4650 ha         1 WR1       0.132000
     34 H20          4.8430    -0.0010     6.3950 ha         1 WR1       0.131000
     35 H21          4.0240     2.1460     5.4650 ha         1 WR1       0.132000
     36 H22          2.3830     2.1440     3.6040 ha         1 WR1       0.136000
     37 HN2          3.0230    -0.0020    -0.9920 hn         1 WR1       0.332500
     38 H7           0.5800     0.5310    -2.4940 h1         1 WR1       0.090700
     39 H81          3.5030     0.3540    -3.2150 hc         1 WR1       0.062700
     40 H82          2.2550     0.3370    -4.4590 hc         1 WR1       0.062700
     41 H10          0.9050     2.2850    -4.9170 ha         1 WR1       0.131000
     42 H11          0.7920     4.7650    -4.8440 ha         1 WR1       0.132500
     43 H12          2.2570     6.0230    -3.2920 ha         1 WR1       0.132000
     44 H13          3.8320     4.8080    -1.8140 ha         1 WR1       0.132500
     45 H14          3.9400     2.3280    -1.8920 ha         1 WR1       0.131000
     46 HN1         -0.3640    -0.7870    -3.9060 hn         1 WR1       0.323500
     47 H4           0.5180    -3.5470    -4.2550 h1         1 WR1       0.079700
     48 H51         -1.9810    -2.1830    -5.2800 hc         1 WR1       0.050367
     49 H52         -1.3320    -3.7460    -5.7970 hc         1 WR1       0.050367
     50 H53         -0.4480    -2.2580    -6.1600 hc         1 WR1       0.050367
     51 H21A        -1.4840    -5.4250    -3.8070 hc         1 WR1       0.070700
     52 H22A        -0.1900    -5.2650    -2.6230 hc         1 WR1       0.070700
     53 H11A        -1.8730    -5.0010    -0.8370 h1         1 WR1       0.026700
     54 H12A        -2.0370    -6.5410    -1.6870 h1         1 WR1       0.026700
     55 HO1         -4.0670    -5.6700    -1.5700 ho         1 WR1       0.402000
@<TRIPOS>BOND
     1     1     2 2
     2     2     3 1
     3     2    11 1
     4     3     4 1
     5     4     5 1
     6     4    30 1
     7     4    31 1
     8     5     6 ar
     9     5    10 ar
    10     6     7 ar
    11     6    32 1
    12     7     8 ar
    13     7    33 1
    14     8     9 ar
    15     8    34 1
    16     9    10 ar
    17     9    35 1
    18    10    36 1
    19    11    12 1
    20    11    37 1
    21    12    20 1
    22    12    13 1
    23    12    38 1
    24    13    14 1
    25    13    39 1
    26    13    40 1
    27    14    19 ar
    28    14    15 ar
    29    15    16 ar
    30    15    41 1
    31    16    17 ar
    32    16    42 1
    33    17    18 ar
    34    17    43 1
    35    18    19 ar
    36    18    44 1
    37    19    45 1
    38    20    21 2
    39    20    22 1
    40    22    23 1
    41    22    46 1
    42    23    25 1
    43    23    24 1
    44    23    47 1
    45    24    48 1
    46    24    49 1
    47    24    50 1
    48    25    27 1
    49    25    26 2
    50    27    28 1
    51    27    51 1
    52    27    52 1
    53    28    29 1
    54    28    53 1
    55    28    54 1
    56    29    55 1
@<TRIPOS>SUBSTRUCTURE
     1 WR1         1 TEMP              0 ****  ****    0 ROOT
