@<TRIPOS>MOLECULE
molecule
   64    64     1     0     0
SMALL
bcc


@<TRIPOS>ATOM
      1 O            0.0000     0.0000     0.0000 o          1 WR2      -0.596100
      2 C            1.2250     0.0000     0.0000 c          1 WR2       0.669100
      3 NAQ          2.0290     0.0430    -1.0640 ns         1 WR2      -0.579900
      4 CAA          1.5020     0.0530    -2.4530 c3         1 WR2       0.096300
      5 CA           2.0070     0.0000     1.3020 c3         1 WR2       0.019700
      6 CB           2.1510    -1.3990     1.9520 c3         1 WR2      -0.076000
      7 CAF          0.8280    -2.0210     2.3650 c3         1 WR2      -0.088100
      8 CG2          3.0670    -1.3610     3.1720 c3         1 WR2      -0.088100
      9 CG1          2.8560    -2.3000     0.8990 c3         1 WR2      -0.088100
     10 N            1.3430     0.8850     2.2870 ns         1 WR2      -0.552900
     11 CAY          1.9230     2.0670     2.5370 c          1 WR2       0.661100
     12 OAJ          2.9320     2.4760     2.0180 o          1 WR2      -0.598100
     13 CBC          1.2420     2.9570     3.5860 c3         1 WR2      -0.141700
     14 CAO          0.6520     4.2470     2.9550 c3         1 WR2      -0.063400
     15 CBA         -0.3360     3.9480     1.8030 c3         1 WR2      -0.075700
     16 CAB         -1.5960     3.2330     2.3290 c3         1 WR2      -0.085600
     17 CAC         -0.7490     5.2720     1.1160 c3         1 WR2      -0.085600
     18 CBB          2.2750     3.2790     4.6840 c3         1 WR2      -0.142700
     19 CAX          1.6190     4.2650     5.6530 c          1 WR2       0.665100
     20 OAI          0.6800     3.8890     6.3780 o          1 WR2      -0.597100
     21 NAR          2.0740     5.5200     5.5960 ns         1 WR2      -0.438400
     22 OAK          1.4650     6.4930     6.3460 oh         1 WR2      -0.370100
     23 CAN          2.6080     1.9630     5.4030 c3         1 WR2       0.098000
     24 NAS          3.6070     2.0850     6.4120 ns         1 WR2      -0.512900
     25 CAV          4.8300     1.9670     6.0990 c          1 WR2       0.581600
     26 OAG          5.2660     1.8630     4.9830 o          1 WR2      -0.617100
     27 CAZ          5.8290     2.0340     7.1720 cc         1 WR2       0.320900
     28 NAP          5.4370     2.1810     8.3740 nd         1 WR2      -0.630000
     29 CAL          6.4730     2.0550     9.1690 cd         1 WR2       0.334200
     30 CAM          7.7020     2.1110     8.5980 cc         1 WR2      -0.211400
     31 SAU          7.5050     1.9100     6.8750 ss         1 WR2      -0.041300
     32 HAQ          3.0200     0.0700    -0.9210 hn         1 WR2       0.323500
     33 HA           2.9980     0.3890     1.1040 h1         1 WR2       0.088700
     34 HAA1         2.3250     0.1500    -3.1510 h1         1 WR2       0.044033
     35 HAA2         0.9730    -0.8720    -2.6460 h1         1 WR2       0.044033
     36 HAA3         0.8240     0.8890    -2.5760 h1         1 WR2       0.044033
     37 H            0.6800     0.5050     2.9340 hn         1 WR2       0.334500
     38 HAF1         0.4210    -1.4780     3.2100 hc         1 WR2       0.041367
     39 HAF2         0.1320    -1.9730     1.5360 hc         1 WR2       0.041367
     40 HAF3         0.9860    -3.0560     2.6430 hc         1 WR2       0.041367
     41 HG21         3.4130    -2.3630     3.3950 hc         1 WR2       0.041367
     42 HG22         2.5210    -0.9700     4.0220 hc         1 WR2       0.041367
     43 HG23         3.9180    -0.7230     2.9650 hc         1 WR2       0.041367
     44 HG11         3.1230    -3.2460     1.3540 hc         1 WR2       0.041367
     45 HG12         2.1840    -2.4760     0.0670 hc         1 WR2       0.041367
     46 HG13         3.7510    -1.8060     0.5420 hc         1 WR2       0.041367
     47 HBC          0.4310     2.3960     4.0340 hc         1 WR2       0.067700
     48 HAO1         1.4650     4.8510     2.5710 hc         1 WR2       0.055700
     49 HAO2         0.1340     4.8060     3.7250 hc         1 WR2       0.055700
     50 HBB          3.1680     3.7120     4.2490 hc         1 WR2       0.091700
     51 HBA          0.1530     3.3110     1.0760 hc         1 WR2       0.058700
     52 HAB1        -2.1770     2.8620     1.4930 hc         1 WR2       0.034867
     53 HAB2        -1.3030     2.4030     2.9620 hc         1 WR2       0.034867
     54 HAB3        -2.1940     3.9300     2.9030 hc         1 WR2       0.034867
     55 HAC1         0.1270     5.7450     0.6870 hc         1 WR2       0.034867
     56 HAC2        -1.1950     5.9350     1.8480 hc         1 WR2       0.034867
     57 HAC3        -1.4670     5.0640     0.3320 hc         1 WR2       0.034867
     58 HAN1         1.7020     1.5840     5.8600 h1         1 WR2       0.070700
     59 HAN2         2.9490     1.2460     4.6660 h1         1 WR2       0.070700
     60 HAR          2.9260     5.7210     5.1120 hn         1 WR2       0.332500
     61 HAK          2.0680     7.2040     6.4860 ho         1 WR2       0.400000
     62 HAS          3.3400     2.1440     7.3750 hn         1 WR2       0.354500
     63 HAL          6.3580     2.1420    10.2430 h4         1 WR2       0.036100
     64 HAM          8.6490     2.0750     9.1220 h4         1 WR2       0.180000
@<TRIPOS>BOND
     1     1     2 2
     2     2     3 1
     3     2     5 1
     4     3     4 1
     5     5     6 1
     6     5    10 1
     7     6     7 1
     8     6     8 1
     9     6     9 1
    10    10    11 1
    11    11    12 2
    12    11    13 1
    13    13    14 1
    14    13    18 1
    15    14    15 1
    16    15    16 1
    17    15    17 1
    18    18    19 1
    19    18    23 1
    20    19    20 2
    21    19    21 1
    22    21    22 1
    23    23    24 1
    24    24    25 1
    25    25    26 2
    26    25    27 1
    27    27    28 2
    28    27    31 1
    29    28    29 1
    30    29    30 2
    31    30    31 1
    32     3    32 1
    33     5    33 1
    34     4    34 1
    35     4    35 1
    36     4    36 1
    37    10    37 1
    38     7    38 1
    39     7    39 1
    40     7    40 1
    41     8    41 1
    42     8    42 1
    43     8    43 1
    44     9    44 1
    45     9    45 1
    46     9    46 1
    47    13    47 1
    48    14    48 1
    49    14    49 1
    50    18    50 1
    51    15    51 1
    52    16    52 1
    53    16    53 1
    54    16    54 1
    55    17    55 1
    56    17    56 1
    57    17    57 1
    58    23    58 1
    59    23    59 1
    60    21    60 1
    61    22    61 1
    62    24    62 1
    63    29    63 1
    64    30    64 1
@<TRIPOS>SUBSTRUCTURE
     1 WR2         1 TEMP              0 ****  ****    0 ROOT
