@<TRIPOS>MOLECULE
molecule
   41    42     1     0     0
SMALL
bcc


@<TRIPOS>ATOM
      1 C1           0.0000     0.0000     0.0000 ca         1 WR7       0.500700
      2 N1           1.3230     0.0000     0.0000 nb         1 WR7      -0.783000
      3 O1           4.6800     3.3700     3.7210 os         1 WR7      -0.437900
      4 Cl1          6.3700    -0.5810     0.8820 cl         1 WR7      -0.110067
      5 C2           1.9990     0.0000     1.1390 ca         1 WR7       0.938900
      6 N2           1.3840     0.0010     2.3120 nb         1 WR7      -0.783000
      7 O2           3.2100     1.7660     4.1600 o          1 WR7      -0.582000
      8 Cl2          4.5960    -2.6620     1.9730 cl         1 WR7      -0.110067
      9 C3           0.0630     0.0010     2.3820 ca         1 WR7       0.500700
     10 N3           3.3830     0.0000     1.1030 nu         1 WR7      -0.908900
     11 O3           2.7570     6.9690     3.3670 o          1 WR7      -0.199000
     12 C4          -0.6760     0.0010     1.2090 ca         1 WR7      -0.436600
     13 N4           4.7090     1.3350     2.5800 ns         1 WR7      -0.580900
     14 O4           1.4940     8.3400     4.3550 o          1 WR7      -0.199000
     15 C5           4.1480     0.0000     2.3520 c3         1 WR7       0.437900
     16 N5           4.1190     6.3580     5.8610 na         1 WR7      -0.166900
     17 C6           5.2850    -1.0190     2.2530 c3         1 WR7       0.242200
     18 N6           3.6490     7.2480     7.7700 nc         1 WR7      -0.694000
     19 C7           4.1650     2.1440     3.5100 c          1 WR7       0.761100
     20 C8           4.0440     4.1870     4.7390 c3         1 WR7       0.153400
     21 C9           4.7610     5.5340     4.8340 c3         1 WR7       0.024300
     22 C10          2.8070     7.7780     6.8700 cc         1 WR7       0.422200
     23 C11          4.4400     6.3990     7.1720 cd         1 WR7       0.464800
     24 C12          3.0860     7.2360     5.6690 cd         1 WR7      -0.320800
     25 C13          5.5290     5.5960     7.8350 c3         1 WR7      -0.116400
     26 H10          2.0390     8.5130     7.0740 h4         1 WR7       0.070100
     27 H1          -0.5480     0.0000    -0.9340 h4         1 WR7       0.032600
     28 H3          -0.4350     0.0010     3.3440 h4         1 WR7       0.032600
     29 H13          5.3050     4.5400     7.7460 hc         1 WR7       0.067033
     30 HN3          3.8610     0.0230     0.2230 hn         1 WR7       0.465800
     31 H13A         5.5900     5.8650     8.8820 hc         1 WR7       0.067033
     32 H13B         6.4760     5.8060     7.3530 hc         1 WR7       0.067033
     33 H4          -1.7590     0.0000     1.2380 ha         1 WR7       0.147000
     34 HN4          5.4890     1.6500     2.0380 hn         1 WR7       0.331500
     35 H5           3.4960    -0.2640     3.1750 h2         1 WR7       0.164700
     36 H8           3.0060     4.3490     4.4740 h1         1 WR7       0.065200
     37 H8A          4.0980     3.6800     5.6950 h1         1 WR7       0.065200
     38 H9           4.7070     6.0410     3.8780 h1         1 WR7       0.092200
     39 H9A          5.8000     5.3720     5.0980 h1         1 WR7       0.092200
     40 Cl3          6.2280    -1.0190     3.7910 cl         1 WR7      -0.110067
     41 N7           2.4050     7.5320     4.3880 no         1 WR7       0.330200
@<TRIPOS>BOND
     1     1     2 ar
     2     1    12 ar
     3     1    27 1
     4     2     5 ar
     5     3    19 1
     6     3    20 1
     7     4    17 1
     8     5     6 ar
     9     5    10 1
    10     6     9 ar
    11     7    19 2
    12     8    17 1
    13     9    12 ar
    14     9    28 1
    15    10    15 1
    16    10    30 1
    17    11    41 1
    18    40    17 1
    19    12    33 1
    20    13    15 1
    21    13    19 1
    22    13    34 1
    23    14    41 1
    24    15    17 1
    25    15    35 1
    26    16    21 1
    27    16    23 1
    28    16    24 1
    29    18    22 1
    30    18    23 2
    31    41    24 1
    32    20    21 1
    33    20    36 1
    34    20    37 1
    35    21    38 1
    36    21    39 1
    37    22    24 2
    38    22    26 1
    39    23    25 1
    40    25    29 1
    41    25    31 1
    42    25    32 1
@<TRIPOS>SUBSTRUCTURE
     1 WR7         1 TEMP              0 ****  ****    0 ROOT
