@<TRIPOS>MOLECULE
molecule
   44    45     1     0     0
SMALL
bcc


@<TRIPOS>ATOM
      1 C1           0.0000     0.0000     0.0000 c3         1 WRA       0.462400
      2 N2           1.4680     0.0000     0.0000 n2         1 WRA      -0.558900
      3 C3           2.1280     0.0000     1.1270 ce         1 WRA       0.715200
      4 N4           1.5050    -0.0450     2.3170 ne         1 WRA      -0.806000
      5 C5           0.2220    -0.3430     2.3990 c2         1 WRA       0.784100
      6 N6          -0.4620    -0.6340     1.2430 nh         1 WRA      -0.610100
      7 O7          -1.5710    -1.5140     1.2500 os         1 WRA      -0.088100
      8 C8          -2.7320    -0.7140     1.4800 c3         1 WRA       0.077400
      9 C9          -3.9730    -1.6090     1.4990 c3         1 WRA      -0.089400
     10 C10         -5.2150    -0.7520     1.7450 c3         1 WRA       0.126400
     11 O11         -6.3740    -1.5880     1.7630 os         1 WRA      -0.269900
     12 C12         -7.4420    -0.7750     1.9850 ca         1 WRA       0.108100
     13 C13         -8.7210    -1.3110     2.0480 ca         1 WRA       0.016400
     14 C14         -9.8050    -0.4820     2.2780 ca         1 WRA      -0.063000
     15 C15         -9.6150     0.8770     2.4360 ca         1 WRA       0.018400
     16 C16         -8.3410     1.4130     2.3670 ca         1 WRA       0.062400
     17 C17         -7.2540     0.5890     2.1410 ca         1 WRA      -0.214000
     18 CM1         -0.5150     1.4390    -0.0660 c3         1 WRA      -0.105600
     19 CM2         -0.5160    -0.7880    -1.2040 c3         1 WRA      -0.105600
     20 NH1          3.5070     0.0480     1.0940 nz         1 WRA      -0.725600
     21 NH2         -0.4140    -0.3610     3.6100 nz         1 WRA      -0.754600
     22 Cl1         -8.9590    -3.0190     1.8530 cl         1 WRA      -0.051400
     23 Cl2        -10.9790     1.9150     2.7170 cl         1 WRA      -0.039400
     24 Cl3         -8.1070     3.1220     2.5620 cl         1 WRA      -0.064400
     25 H81         -2.6390    -0.2070     2.4330 h1         1 WRA       0.037200
     26 H82         -2.8280     0.0190     0.6890 h1         1 WRA       0.037200
     27 H91         -4.0670    -2.1170     0.5470 hc         1 WRA       0.090700
     28 H92         -3.8770    -2.3420     2.2910 hc         1 WRA       0.090700
     29 H101        -5.1210    -0.2440     2.6970 h1         1 WRA       0.046200
     30 H102        -5.3110    -0.0190     0.9530 h1         1 WRA       0.046200
     31 H14        -10.8040    -0.8990     2.3300 ha         1 WRA       0.184000
     32 H17         -6.2570     1.0080     2.0870 ha         1 WRA       0.138000
     33 H11         -0.3960     1.9100     0.9020 hc         1 WRA       0.086533
     34 H12         -1.5640     1.4350    -0.3390 hc         1 WRA       0.086533
     35 H13          0.0480     1.9900    -0.8090 hc         1 WRA       0.086533
     36 H21         -0.4270    -1.8490    -1.0060 hc         1 WRA       0.086533
     37 H22          0.0700    -0.5340    -2.0790 hc         1 WRA       0.086533
     38 H23         -1.5550    -0.5380    -1.3800 hc         1 WRA       0.086533
     39 HH11         3.8060     0.9970     0.9890 hn         1 WRA       0.494133
     40 HH12         3.8420    -0.4940     0.3220 hn         1 WRA       0.494133
     41 HH21        -0.8010    -1.2700     3.7690 hn         1 WRA       0.500467
     42 HH22         0.2420    -0.1470     4.3340 hn         1 WRA       0.500467
     43 HH13         3.8740    -0.3170     1.9510 hn         1 WRA       0.494133
     44 HH23        -1.1390     0.3280     3.6160 hn         1 WRA       0.500467
@<TRIPOS>BOND
     1     1     2 1
     2     1     6 1
     3     1    18 1
     4     1    19 1
     5     2     3 2
     6     3     4 1
     7     3    20 1
     8     4     5 2
     9     5     6 1
    10     5    21 1
    11     6     7 1
    12     7     8 1
    13     8     9 1
    14     8    25 1
    15     8    26 1
    16     9    10 1
    17     9    27 1
    18     9    28 1
    19    10    11 1
    20    10    29 1
    21    10    30 1
    22    11    12 1
    23    12    13 ar
    24    12    17 ar
    25    13    14 ar
    26    13    22 1
    27    14    15 ar
    28    14    31 1
    29    15    16 ar
    30    15    23 1
    31    16    17 ar
    32    16    24 1
    33    17    32 1
    34    18    33 1
    35    18    34 1
    36    18    35 1
    37    19    36 1
    38    19    37 1
    39    19    38 1
    40    20    39 1
    41    20    40 1
    42    21    41 1
    43    21    42 1
    44    43    20 1
    45    44    21 1
@<TRIPOS>SUBSTRUCTURE
     1 WRA         1 TEMP              0 ****  ****    0 ROOT
