@<TRIPOS>MOLECULE
molecule
   44    45     1     0     0
SMALL
bcc


@<TRIPOS>ATOM
      1 C1           0.0000     0.0000     0.0000 c3         1 WRB       0.462400
      2 N2           1.4670     0.0000     0.0000 n2         1 WRB      -0.557900
      3 C3           2.1270     0.0000     1.1270 ce         1 WRB       0.715200
      4 N4           1.5030    -0.0460     2.3160 ne         1 WRB      -0.808000
      5 C5           0.2210    -0.3440     2.3990 c2         1 WRB       0.785100
      6 N6          -0.4630    -0.6340     1.2420 nh         1 WRB      -0.610100
      7 O7          -1.5720    -1.5150     1.2480 os         1 WRB      -0.088100
      8 C8          -2.7340    -0.7150     1.4780 c3         1 WRB       0.078400
      9 C9          -3.9740    -1.6100     1.4950 c3         1 WRB      -0.091400
     10 C10         -5.2170    -0.7530     1.7410 c3         1 WRB       0.130400
     11 O11         -6.3750    -1.5890     1.7570 os         1 WRB      -0.284900
     12 C12         -7.4420    -0.7770     1.9780 ca         1 WRB       0.103100
     13 C13         -8.7210    -1.3120     2.0470 ca         1 WRB      -0.184500
     14 C14         -9.8040    -0.4850     2.2720 ca         1 WRB      -0.059500
     15 C15         -7.2550     0.5870     2.1410 ca         1 WRB      -0.184500
     16 C16         -8.3420     1.4110     2.3620 ca         1 WRB      -0.059500
     17 C17         -9.6150     0.8750     2.4290 ca         1 WRB      -0.039900
     18 CM1         -0.5160     1.4390    -0.0670 c3         1 WRB      -0.105600
     19 CM2         -0.5150    -0.7890    -1.2050 c3         1 WRB      -0.105600
     20 NH1          3.5060     0.0470     1.0960 nz         1 WRB      -0.725600
     21 NH2         -0.4160    -0.3620     3.6080 nz         1 WRB      -0.754600
     22 Br         -11.1000     2.0060     2.7380 br         1 WRB      -0.053100
     23 H81         -2.8290     0.0190     0.6860 h1         1 WRB       0.036700
     24 H82         -2.6400    -0.2090     2.4310 h1         1 WRB       0.036700
     25 H91         -3.8790    -2.3430     2.2870 hc         1 WRB       0.088700
     26 H92         -4.0670    -2.1160     0.5420 hc         1 WRB       0.088700
     27 H101        -5.1230    -0.2470     2.6940 h1         1 WRB       0.045200
     28 H102        -5.3120    -0.0200     0.9490 h1         1 WRB       0.045200
     29 H131        -8.8690    -2.3780     1.9240 ha         1 WRB       0.138500
     30 H141       -10.8020    -0.9030     2.3260 ha         1 WRB       0.158500
     31 H151        -6.2570     1.0070     2.0890 ha         1 WRB       0.138500
     32 H161        -8.1960     2.4770     2.4870 ha         1 WRB       0.158500
     33 HM11        -0.3880     1.9140     0.8980 hc         1 WRB       0.086533
     34 HM12        -1.5670     1.4340    -0.3300 hc         1 WRB       0.086533
     35 HM13         0.0410     1.9880    -0.8170 hc         1 WRB       0.086533
     36 HM21        -0.4270    -1.8500    -1.0070 hc         1 WRB       0.086533
     37 HM22         0.0730    -0.5350    -2.0800 hc         1 WRB       0.086533
     38 HM23        -1.5540    -0.5390    -1.3840 hc         1 WRB       0.086533
     39 HN11         3.8030     0.9760     0.8710 hn         1 WRB       0.494467
     40 HN12         3.8690    -0.2120     1.9920 hn         1 WRB       0.494467
     41 HN21        -0.7620    -1.2840     3.7900 hn         1 WRB       0.500800
     42 HN22         0.2270    -0.0990     4.3280 hn         1 WRB       0.500800
     43 HH13         3.8460    -0.5970     0.4090 hn         1 WRB       0.494467
     44 HH23        -1.1580     0.3100     3.6050 hn         1 WRB       0.500800
@<TRIPOS>BOND
     1     1     2 1
     2     1     6 1
     3     1    18 1
     4     1    19 1
     5     2     3 2
     6     3     4 1
     7     3    20 1
     8     4     5 2
     9     5     6 1
    10     5    21 1
    11     6     7 1
    12     7     8 1
    13     8     9 1
    14     8    23 1
    15     8    24 1
    16     9    10 1
    17     9    25 1
    18     9    26 1
    19    10    11 1
    20    10    27 1
    21    10    28 1
    22    11    12 1
    23    12    13 ar
    24    12    15 ar
    25    13    14 ar
    26    13    29 1
    27    14    17 ar
    28    14    30 1
    29    15    16 ar
    30    15    31 1
    31    16    17 ar
    32    16    32 1
    33    17    22 1
    34    18    33 1
    35    18    34 1
    36    18    35 1
    37    19    36 1
    38    19    37 1
    39    19    38 1
    40    20    39 1
    41    20    40 1
    42    21    41 1
    43    21    42 1
    44    43    20 1
    45    44    21 1
@<TRIPOS>SUBSTRUCTURE
     1 WRB         1 TEMP              0 ****  ****    0 ROOT
