@<TRIPOS>MOLECULE
WRO
   33    34     1     0     0
SMALL
bcc


@<TRIPOS>ATOM
      1 OAA          0.0000     0.0000     0.0000 o          1 WRO      -0.854300
      2 CAP          1.2130     0.0000     0.0000 c          1 WRO       0.975800
      3 OAD          1.8870     0.0000     1.1670 o          1 WRO      -0.854300
      4 CAS          1.9550    -0.0080    -1.2830 cc         1 WRO      -0.129600
      5 NAN          3.3280     0.1170    -1.2940 ns         1 WRO       0.054900
      6 CAU          4.0180     0.1130    -2.4460 c          1 WRO       0.560500
      7 OAB          5.2290     0.2240    -2.4120 o          1 WRO      -0.758500
      8 NAO          3.4060    -0.0120    -3.6370 ns         1 WRO      -0.138500
      9 CAV          2.0640    -0.1380    -3.7060 c          1 WRO       0.618700
     10 OAC          1.5070    -0.2500    -4.7820 o          1 WRO      -0.698500
     11 CAT          1.2890    -0.1410    -2.4590 cd         1 WRO      -0.274400
     12 CAM         -0.2120    -0.2800    -2.4850 c3         1 WRO       0.023800
     13 CAL         -0.8500     1.1040    -2.6170 c3         1 WRO       0.031900
     14 CAQ         -2.3500     0.9660    -2.6420 ca         1 WRO      -0.045300
     15 CAK         -3.0080     0.7960    -3.8460 ca         1 WRO      -0.048000
     16 CAR         -4.3840     0.6700    -3.8680 ca         1 WRO      -0.227300
     17 CAW         -5.1030     0.4850    -5.1810 c3         1 WRO       0.639200
     18 FAF         -6.3830     1.0420    -5.0940 f          1 WRO      -0.214967
     19 FAG         -4.3850     1.1220    -6.1990 f          1 WRO      -0.214967
     20 FAE         -5.2060    -0.8800    -5.4670 f          1 WRO      -0.214967
     21 CAJ         -5.1020     0.7130    -2.6880 ca         1 WRO      -0.070000
     22 CAH         -4.4450     0.8820    -1.4840 ca         1 WRO      -0.146000
     23 CAI         -3.0670     1.0030    -1.4610 ca         1 WRO      -0.031000
     24 H2           3.9490    -0.0120    -4.4770 hn         1 WRO       0.188500
     25 H4          -0.5030    -0.8940    -3.3280 hc         1 WRO       0.055200
     26 H5          -0.5470    -0.7460    -1.5660 hc         1 WRO       0.055200
     27 H6          -0.5580     1.7180    -1.7730 hc         1 WRO       0.024700
     28 H7          -0.5150     1.5700    -3.5350 hc         1 WRO       0.024700
     29 H8          -2.4490     0.7960    -4.7740 ha         1 WRO       0.124000
     30 H9          -6.1800     0.5990    -2.7050 ha         1 WRO       0.103000
     31 H10         -5.0060     0.8970    -0.5580 ha         1 WRO       0.103000
     32 H11         -2.8470     1.3020    -0.4430 ha         1 WRO       0.128000
     33 H12          3.8200     0.2120    -0.4270 hn         1 WRO       0.212500
@<TRIPOS>BOND
     1     1     2 1   
     2     2     3 1   
     3     2     4 1   
     4     4     5 1   
     5     4    11 2   
     6     5     6 1   
     7     5    33 1   
     8     6     7 2   
     9     6     8 1   
    10     8     9 1   
    11     8    24 1   
    12     9    10 2   
    13     9    11 1   
    14    11    12 1   
    15    12    13 1   
    16    12    25 1   
    17    12    26 1   
    18    13    14 1   
    19    13    27 1   
    20    13    28 1   
    21    14    15 ar  
    22    14    23 ar  
    23    15    16 ar  
    24    15    29 1   
    25    16    17 1   
    26    16    21 ar  
    27    17    18 1   
    28    17    19 1   
    29    17    20 1   
    30    21    22 ar  
    31    21    30 1   
    32    22    23 ar  
    33    22    31 1   
    34    23    32 1   
@<TRIPOS>SUBSTRUCTURE
     1 WRO         1 TEMP              0 ****  ****    0 ROOT
