@<TRIPOS>MOLECULE
WRR
   41    43     1     0     0
SMALL
bcc


@<TRIPOS>ATOM
      1 C1         -0.1130    0.0710   -0.1480 ca        1 WRR     -0.181800
      2 C2          3.5420    0.0360    1.1370 c3        1 WRR      0.039800
      3 C3          4.1790    1.2550    0.4780 c3        1 WRR     -0.070400
      4 C4          3.9880    2.5120    1.3240 c3        1 WRR      0.138100
      5 C5          4.2660    3.7650    0.5130 c3        1 WRR     -0.129100
      6 C6          4.1300   -1.2460    0.6230 ca        1 WRR     -0.074300
      7 C7          4.3820   -2.2900    1.5240 ca        1 WRR     -0.121000
      8 C8          4.9420   -3.4850    1.0770 ca        1 WRR     -0.134500
      9 C9          5.2590   -3.6500   -0.2710 ca        1 WRR     -0.131000
     10 C10         5.0110   -2.6150   -1.1720 ca        1 WRR     -0.134500
     11 C11         1.3180   -0.1150    2.2700 c         1 WRR      0.731800
     12 C12         4.4480   -1.4200   -0.7280 ca        1 WRR     -0.121000
     13 C13         2.0480    0.0250    1.0130 cc        1 WRR     -0.227400
     14 C14         1.3410    0.1100   -0.1540 cd        1 WRR      0.219900
     15 C15        -0.9110    0.1890   -1.3020 ca        1 WRR     -0.085000
     16 C16        -2.2930    0.1320   -1.2130 ca        1 WRR     -0.153000
     17 C17        -2.9190   -0.0420    0.0300 ca        1 WRR     -0.081000
     18 C18        -2.1660   -0.1500    1.1870 ca        1 WRR     -0.145000
     19 C19        -0.7600   -0.0870    1.0920 ca        1 WRR      0.166100
     20 O1         -0.0780   -0.1810    2.2800 os        1 WRR     -0.326200
     21 O2          1.7490   -0.1990    3.4190 o         1 WRR     -0.564500
     22 O3          4.9000    2.4090    2.4140 oh        1 WRR     -0.598800
     23 O4          2.0230    0.2680   -1.3330 oh        1 WRR     -0.483100
     24 HC2         3.7940    0.1060    2.2430 hc        1 WRR      0.100700
     25 HC31        3.7430    1.4330   -0.5370 hc        1 WRR      0.064700
     26 HC32        5.2790    1.0650    0.3590 hc        1 WRR      0.064700
     27 HC4         2.9350    2.5460    1.7260 h1        1 WRR      0.033700
     28 HC1         4.1610    4.6720    1.1560 hc        1 WRR      0.041700
     29 HA2         3.5450    3.8420   -0.3350 hc        1 WRR      0.041700
     30 HC3         5.3040    3.7400    0.1050 hc        1 WRR      0.041700
     31 HC7         4.1360   -2.1620    2.5900 ha        1 WRR      0.140500
     32 HC8         5.1370   -4.2980    1.7920 ha        1 WRR      0.129000
     33 HC9         5.7050   -4.5920   -0.6210 ha        1 WRR      0.129000
     34 HC01        5.2600   -2.7410   -2.2360 ha        1 WRR      0.129000
     35 HC21        4.2440   -0.6070   -1.4430 ha        1 WRR      0.140500
     36 HC51       -0.4450    0.3410   -2.2870 ha        1 WRR      0.131000
     37 HC61       -2.9060    0.2250   -2.1220 ha        1 WRR      0.143000
     38 HC71       -4.0180   -0.0900    0.0850 ha        1 WRR      0.145000
     39 HC81       -2.6310   -0.2800    2.1750 ha        1 WRR      0.164000
     40 HO3         4.7460    3.1760    2.9770 ho        1 WRR      0.399000
     41 HO4         1.4510   -0.0110   -2.0640 ho        1 WRR      0.429000
@<TRIPOS>BOND
     1    1   14 1
     2    1   15 ar
     3    1   19 ar
     4    2    3 1
     5    2    6 1
     6    2   13 1
     7    2   24 1
     8    3    4 1
     9    3   25 1
    10    3   26 1
    11    4    5 1
    12    4   22 1
    13    4   27 1
    14    5   28 1
    15    5   29 1
    16    5   30 1
    17    6    7 ar
    18    6   12 ar
    19    7    8 ar
    20    7   31 1
    21    8    9 ar
    22    8   32 1
    23    9   10 ar
    24    9   33 1
    25   10   12 ar
    26   10   34 1
    27   11   13 1
    28   11   20 1
    29   11   21 2
    30   12   35 1
    31   13   14 2
    32   14   23 1
    33   15   16 ar
    34   15   36 1
    35   16   17 ar
    36   16   37 1
    37   17   18 ar
    38   17   38 1
    39   18   19 ar
    40   18   39 1
    41   19   20 1
    42   22   40 1
    43   23   41 1
@<TRIPOS>SUBSTRUCTURE
     1 WRR         1 TEMP              0 ****  ****    0 ROOT
