@<TRIPOS>MOLECULE
WRS
   41    43     1     0     0
SMALL
bcc


@<TRIPOS>ATOM
      1 C1          0.0100    0.2420   -0.0150 ca        1 WRS     -0.182800
      2 C2          3.7630    0.2890    0.9470 c3        1 WRS      0.046800
      3 C3          4.4180    0.2250   -0.4280 c3        1 WRS     -0.070400
      4 C4          5.9290    0.0280   -0.3200 c3        1 WRS      0.139100
      5 C5          6.3070   -1.4290   -0.1290 c3        1 WRS     -0.132100
      6 C6          4.0460    1.5790    1.6620 ca        1 WRS     -0.079300
      7 C7          4.5610    1.5390    2.9650 ca        1 WRS     -0.119000
      8 C8          4.8400    2.7200    3.6490 ca        1 WRS     -0.134000
      9 C9          4.6060    3.9540    3.0420 ca        1 WRS     -0.129000
     10 C10         4.0870    4.0010    1.7490 ca        1 WRS     -0.134000
     11 C11         1.7640   -0.8660    1.8940 c         1 WRS      0.736800
     12 C12         3.8070    2.8200    1.0620 ca        1 WRS     -0.119000
     13 C13         2.2880    0.0290    0.8700 cc        1 WRS     -0.238400
     14 C14         1.4300    0.5560   -0.0560 cd        1 WRS      0.226900
     15 C15        -0.9420    0.7440   -0.9220 ca        1 WRS     -0.085000
     16 C16        -2.2790    0.4010   -0.8060 ca        1 WRS     -0.153000
     17 C17        -2.7080   -0.4540    0.2210 ca        1 WRS     -0.079000
     18 C18        -1.8000   -0.9660    1.1310 ca        1 WRS     -0.145000
     19 C19        -0.4400   -0.6150    1.0080 ca        1 WRS      0.168100
     20 O1          0.4000   -1.1650    1.9450 os        1 WRS     -0.324200
     21 O2          2.3590   -1.4640    2.7900 o         1 WRS     -0.570500
     22 O3          6.4730    0.5330   -1.5380 oh        1 WRS     -0.603800
     23 O4          1.9440    1.3830   -1.0190 oh        1 WRS     -0.476100
     24 HC2         4.2100   -0.5510    1.5660 hc        1 WRS      0.077700
     25 HC31        3.9740   -0.6200   -1.0140 hc        1 WRS      0.064700
     26 HC32        4.2200    1.1690   -1.0030 hc        1 WRS      0.064700
     27 HC4         6.3300    0.6420    0.5370 h1        1 WRS      0.041700
     28 HC1         5.9950   -2.0300   -1.0160 hc        1 WRS      0.043700
     29 HA2         5.8080   -1.8420    0.7800 hc        1 WRS      0.043700
     30 HC3         7.4120   -1.5280   -0.0050 hc        1 WRS      0.043700
     31 HC7         4.7390    0.5680    3.4540 ha        1 WRS      0.141000
     32 HC8         5.2440    2.6770    4.6710 ha        1 WRS      0.130000
     33 HC9         4.8280    4.8850    3.5820 ha        1 WRS      0.129000
     34 HC01        3.8990    4.9710    1.2660 ha        1 WRS      0.130000
     35 HC21        3.3900    2.8630    0.0430 ha        1 WRS      0.141000
     36 HC51       -0.6390    1.4180   -1.7380 ha        1 WRS      0.130000
     37 HC61       -3.0130    0.8000   -1.5220 ha        1 WRS      0.143000
     38 HC71       -3.7750   -0.7170    0.3010 ha        1 WRS      0.145000
     39 HC81       -2.1090   -1.6370    1.9460 ha        1 WRS      0.164000
     40 HO3         7.4200    0.3600   -1.5100 ho        1 WRS      0.398000
     41 HO4         1.2360    1.6580   -1.6180 ho        1 WRS      0.429000
@<TRIPOS>BOND
     1    1   14 1   
     2    1   15 ar  
     3    1   19 ar  
     4    2    3 1   
     5    2    6 1   
     6    2   13 1   
     7    2   24 1   
     8    3    4 1   
     9    3   25 1   
    10    3   26 1   
    11    4    5 1   
    12    4   22 1   
    13    4   27 1   
    14    5   28 1   
    15    5   29 1   
    16    5   30 1   
    17    6    7 ar  
    18    6   12 ar  
    19    7    8 ar  
    20    7   31 1   
    21    8    9 ar  
    22    8   32 1   
    23    9   10 ar  
    24    9   33 1   
    25   10   12 ar  
    26   10   34 1   
    27   11   13 1   
    28   11   20 1   
    29   11   21 2   
    30   12   35 1   
    31   13   14 2   
    32   14   23 1   
    33   15   16 ar  
    34   15   36 1   
    35   16   17 ar  
    36   16   37 1   
    37   17   18 ar  
    38   17   38 1   
    39   18   19 ar  
    40   18   39 1   
    41   19   20 1   
    42   22   40 1   
    43   23   41 1   
@<TRIPOS>SUBSTRUCTURE
     1 WRS         1 TEMP              0 ****  ****    0 ROOT
