@<TRIPOS>MOLECULE
WS1
   67    66     1     0     0
SMALL
bcc


@<TRIPOS>ATOM
      1 O4          1.0330    3.7440    2.6830 o         1 WS1     -0.248000
      2 C4          1.9780    3.4870    1.9350 c2        1 WS1      0.335000
      3 N3          2.5790    2.2010    2.0330 n         1 WS1     -0.348000
      4 C2          3.6510    1.7960    1.2640 c2        1 WS1      0.376000
      5 O2          4.1670    0.6680    1.3580 o         1 WS1     -0.331000
      6 C5          2.5620    4.3920    0.9290 c2        1 WS1     -0.214000
      7 C6          3.6110    4.0460    0.1630 c2        1 WS1     -0.222000
      8 N1          4.2250    2.7610    0.2960 n         1 WS1     -0.069000
      9 C1'         5.2890    2.4830   -0.4280 c2        1 WS1      0.149000
     10 O4'        10.0590    1.9270    0.9910 oh        1 WS1     -0.255000
     11 C2'         6.0510    1.1780   -0.4800 c3        1 WS1     -0.014000
     12 O2'         5.2140    0.1920   -1.0500 oh        1 WS1     -0.310000
     13 C3'         7.2810    1.3020   -1.4260 c3        1 WS1      0.084000
     14 O3'         7.7270   -0.0120   -1.7110 oh        1 WS1     -0.309000
     15 C4'         9.0090    1.3540    0.3230 c2        1 WS1     -0.021000
     16 C5'         8.4300    2.0010   -0.7310 c2        1 WS1     -0.088000
     17 N11         8.9510    3.2060   -1.2330 n         1 WS1     -0.266000
     18 C12         8.3060    4.1600   -1.9680 c2        1 WS1      0.369000
     19 O13         7.0790    4.1520   -2.2250 o         1 WS1     -0.463000
     20 C14         9.1700    5.3510   -2.4740 c3        1 WS1     -0.099000
     21 C15        10.2940    4.7910   -3.2510 c1        1 WS1     -0.031000
     22 C16        11.5380    5.4240   -3.3840 c2        1 WS1     -0.539000
     23 C17        12.4960    4.9200   -4.1670 c1        1 WS1      0.441000
     24 C18         8.8240    7.3020   -1.1650 c2        1 WS1     -0.077000
     25 N19         9.4930    6.2250   -1.3620 n2        1 WS1     -0.199000
     26 C20         9.1250    8.2370   -0.0200 c3        1 WS1     -0.001000
     27 O21         7.9270    8.8510    0.4520 os        1 WS1     -0.304000
     28 H1          2.2070    1.5320    2.6820 hn        1 WS1      0.287000
     29 H2          2.0830    5.3810    0.8250 ha        1 WS1      0.211000
     30 H3          4.0810    4.8490   -0.7720 h4        1 WS1      0.336000
     31 H4         10.4650    1.2400    1.5420 ho        1 WS1      0.239000
     32 H5          6.3890    0.8950    0.5590 h1        1 WS1      0.146000
     33 H6          4.9130   -0.4000   -0.3430 ho        1 WS1      0.253000
     34 H7          6.9780    1.8290   -2.3740 h1        1 WS1      0.131000
     35 H8          7.0480   -0.4350   -2.2590 ho        1 WS1      0.235000
     36 H9          8.6710    0.3550    0.6420 h4        1 WS1      0.161000
     37 H10         8.3860   -2.2920   -2.2750 ha        1 WS1      0.002000
     38 H11         8.9610   -1.9850   -2.0890 ha        1 WS1      0.002000
     39 H12         5.6710    3.3020   -1.0990 h4        1 WS1      0.244000
     40 H13         8.5270    5.8550   -3.2770 h1        1 WS1      0.151000
     41 H14        11.7920    6.3620   -2.8350 ha        1 WS1      0.188000
     42 H15         7.9660    7.6450   -1.7890 h4        1 WS1      0.120000
     43 H16         9.6550    7.7290    0.8280 h1        1 WS1      0.126500
     44 H17         9.7370    9.1050   -0.3940 h1        1 WS1      0.126500
     45 C22         7.0100    7.9680    1.0690 c3        1 WS1      0.155000
     46 C23         6.2810    8.7090    2.2110 c3        1 WS1     -0.035000
     47 C24         6.4570   10.2340    2.1910 c3        1 WS1     -0.037000
     48 C25         4.1510    7.7700   -1.1480 c3        1 WS1      0.148000
     49 C26         5.4250    8.4800   -0.6860 c3        1 WS1     -0.053000
     50 O27         6.1760    7.5020    0.0270 os        1 WS1     -0.315000
     51 C28         4.5370    5.5000   -1.9010 c1        1 WS1     -0.011000
     52 O29         4.5540    6.7640   -2.1500 os        1 WS1     -0.162000
     53 O30         3.4520    7.0970   -0.1700 oh        1 WS1     -0.309000
     54 O31         7.7240   10.5910    2.6890 oh        1 WS1     -0.308000
     55 O32         4.9100    8.3560    2.0830 oh        1 WS1     -0.349000
     56 H18         7.4980    7.0270    1.4560 h2        1 WS1      0.134000
     57 H19         6.6890    8.3150    3.1860 h1        1 WS1      0.113000
     58 H20         6.2970   10.6370    1.1570 h1        1 WS1      0.099000
     59 H21         5.7210   10.7080    2.8980 h1        1 WS1      0.099000
     60 H22         5.1430    9.3460   -0.0320 h1        1 WS1      0.123000
     61 H23         4.9080    4.9280   -2.7860 ha        1 WS1      0.139000
     62 H24         6.0280    8.8260   -1.5650 h1        1 WS1      0.123000
     63 H25         3.4430    8.4360   -1.7180 h2        1 WS1      0.174000
     64 H26         4.0510    6.8940    0.5730 ho        1 WS1      0.257000
     65 H27         8.3720   10.3930    1.9990 ho        1 WS1      0.213000
     66 H28         4.4530    8.7250    2.8510 ho        1 WS1      0.230000
     67 H112        9.9320    3.3310   -1.0730 hn        1 WS1      0.266000
@<TRIPOS>BOND
     1    1    2 1
     2    2    3 1
     3    2    6 1
     4    3    4 1
     5    3   28 1
     6    4    5 1
     7    4    8 1
     8    6    7 1
     9    6   29 1
    10    7    8 1
    11    7   30 1
    12    8    9 1
    13    9   11 1
    14    9   39 1
    15   10   15 1
    16   10   31 1
    17   11   12 1
    18   11   13 1
    19   11   32 1
    20   12   33 1
    21   13   14 1
    22   13   16 1
    23   13   34 1
    24   14   35 1
    25   15   16 1
    26   15   36 1
    27   16   17 1
    28   17   18 1
    29   17   67 1
    30   18   19 1
    31   18   20 1
    32   20   21 1
    33   20   25 1
    34   20   40 1
    35   21   22 1
    36   22   23 1
    37   22   41 1
    38   24   25 1
    39   24   26 1
    40   24   42 1
    41   26   27 1
    42   26   43 1
    43   26   44 1
    44   27   45 1
    45   37   38 1
    46   45   46 1
    47   45   50 1
    48   45   56 1
    49   46   47 1
    50   46   55 1
    51   46   57 1
    52   47   54 1
    53   47   58 1
    54   47   59 1
    55   48   49 1
    56   48   52 1
    57   48   53 1
    58   48   63 1
    59   49   50 1
    60   49   60 1
    61   49   62 1
    62   51   52 1
    63   51   61 1
    64   53   64 1
    65   54   65 1
    66   55   66 1
@<TRIPOS>SUBSTRUCTURE
     1 WS1         1 TEMP              0 ****  ****    0 ROOT
