@<TRIPOS>MOLECULE
WS2
   67    61     1     0     0
SMALL
bcc


@<TRIPOS>ATOM
      1 O4          3.0250    6.1620    1.9410 o         1 WS2     -0.287000
      2 C4          3.4080    5.0960    1.4430 c2        1 WS2      0.350000
      3 N3          3.5520    3.9590    2.2600 n         1 WS2     -0.354000
      4 C2          4.0670    2.7450    1.8060 c2        1 WS2      0.422000
      5 O2          3.9970    1.7190    2.4980 o         1 WS2     -0.294000
      6 C5          3.7250    4.8930    0.0170 c2        1 WS2     -0.198000
      7 C6          4.3210    3.7620   -0.4110 c2        1 WS2     -0.026000
      8 N1          4.6670    2.7080    0.4720 n         1 WS2     -0.233000
      9 C1'         5.6150    1.7620    0.1310 c2        1 WS2      0.419000
     10 O4'         6.2130    1.7860   -1.0730 oh        1 WS2     -0.239000
     11 C2'         6.5430   -0.8540   -1.7890 c2        1 WS2      0.148000
     12 O2'         6.9240   -1.5480   -2.8720 oh        1 WS2     -0.203000
     13 C3'         7.0470   -1.0870   -0.5310 c2        1 WS2     -0.188000
     14 O3'         8.0360   -2.0720   -0.4710 oh        1 WS2     -0.270000
     15 C4'         6.7430   -0.4320    0.6910 c2        1 WS2      0.113000
     16 C5'         6.0510    0.7040    0.9950 c2        1 WS2     -0.293000
     17 N11         6.8660    4.6010   -4.9710 n         1 WS2     -0.377000
     18 C12         6.7120    4.4570   -3.6320 c2        1 WS2      0.357000
     19 O13         5.8200    3.6950   -3.1730 o         1 WS2     -0.481000
     20 C14         7.6060    5.3240   -2.7030 c3        1 WS2     -0.114000
     21 C15         8.8640    5.6380   -3.4140 c1        1 WS2     -0.051000
     22 C16        10.0410    6.0250   -2.7630 c2        1 WS2     -0.558000
     23 C17        11.1900    6.2390   -3.4080 c1        1 WS2      0.445000
     24 C18         7.9830    5.4040   -0.3530 c2        1 WS2     -0.142000
     25 N19         7.6830    4.7130   -1.3910 n2        1 WS2     -0.176000
     26 C20         8.0940    4.7670    0.9970 c2        1 WS2      0.233000
     27 O1'         7.2770    3.9470    1.4180 o         1 WS2     -0.309000
     28 H1          3.2500    3.9870    3.2150 hn        1 WS2      0.289000
     29 H2          3.4340    5.7000   -0.6730 ha        1 WS2      0.204000
     30 H3          4.5330    3.6020   -1.4920 h4        1 WS2      0.221000
     31 H4          6.1870    2.6470   -1.5600 ho        1 WS2      0.331000
     32 H5          5.7770   -0.1000   -2.0480 h4        1 WS2      0.198000
     33 H6          7.6160   -2.2000   -2.6390 ho        1 WS2      0.265000
     34 H7          7.1320   -0.9860    1.5810 ha        1 WS2      0.164000
     35 H8          7.6690   -2.8130    0.0350 ho        1 WS2      0.223000
     36 H9          7.3980    1.1550   -3.0530 ha        1 WS2      0.002000
     37 H10         7.6250    5.1350   -5.3310 hn        1 WS2      0.253000
     38 H11         5.8430    0.8590    2.0770 ha        1 WS2      0.207000
     39 H12         7.2690    1.7740   -3.3010 ha        1 WS2      0.002000
     40 H13         7.0780    6.3450   -2.6570 h1        1 WS2      0.177000
     41 H14        10.0820    6.1940   -1.6530 ha        1 WS2      0.207000
     42 H15         8.1840    6.5040   -0.3400 h4        1 WS2      0.165000
     43 H16         8.2140    7.3420    1.8010 ha        1 WS2      0.002000
     44 H17         7.7780    7.8400    1.9550 ha        1 WS2      0.002000
     45 C11         9.3480    8.9290    0.1440 c2        1 WS2      0.170000
     46 C22         8.1020    9.2850   -0.6170 c3        1 WS2     -0.116000
     47 C33         5.8610    9.4100    1.9560 c1        1 WS2      0.026000
     48 C44         4.8850    8.8240    2.9550 c3        1 WS2      0.047000
     49 C55         5.5790    8.2580    4.0790 c1        1 WS2     -0.243000
     50 O66        10.0290    7.9410   -0.1520 o         1 WS2     -0.340000
     51 H18         9.6160    9.6030    0.9860 h4        1 WS2      0.120000
     52 H19         8.2040   10.3160   -1.0520 h1        1 WS2      0.147500
     53 H21         7.2100    9.2580    0.0800 h1        1 WS2      0.147500
     54 H23         4.3060    8.0010    2.4230 h1        1 WS2      0.148000
     55 H25         8.9590    5.1220    1.6000 h4        1 WS2      0.137000
     56 C77         6.1460    7.7660    5.0100 c1        1 WS2     -0.010000
     57 O70         6.7320    7.1190    6.0010 oh        1 WS2     -0.143000
     58 H26         1.8980    8.0030    3.0580 ha        1 WS2      0.002000
     59 H27         2.0240    8.3270    2.4760 ha        1 WS2      0.002000
     60 H28         7.1690    7.7980    6.5540 ho        1 WS2      0.244000
     61 O71         3.9750    9.8550    3.3320 oh        1 WS2     -0.362000
     62 O72         5.8360   10.6680    1.6870 oh        1 WS2     -0.158000
     63 O73         7.8140    8.3430   -1.6330 oh        1 WS2     -0.338000
     64 H20         3.3680    9.4940    3.9900 ho        1 WS2      0.238000
     65 H22         5.1830   11.2230    2.1700 ho        1 WS2      0.218000
     66 H24         8.5880    8.3000   -2.2100 ho        1 WS2      0.205000
     67 H112        6.3040    4.0680   -5.5910 hn        1 WS2      0.253000
@<TRIPOS>BOND
     1    1    2 1
     2    2    3 1
     3    2    6 1
     4    3    4 1
     5    3   28 1
     6    4    5 1
     7    4    8 1
     8    6    7 1
     9    6   29 1
    10    7    8 1
    11    7   30 1
    12    8    9 1
    13    9   10 1
    14    9   16 1
    15   10   31 1
    16   11   12 1
    17   11   13 1
    18   11   32 1
    19   12   33 1
    20   13   14 1
    21   13   15 1
    22   14   35 1
    23   15   16 1
    24   15   34 1
    25   16   38 1
    26   17   18 1
    27   17   37 1
    28   17   67 1
    29   18   19 1
    30   18   20 1
    31   20   21 1
    32   20   25 1
    33   20   40 1
    34   21   22 1
    35   22   23 1
    36   22   41 1
    37   24   25 1
    38   24   26 1
    39   24   42 1
    40   26   27 1
    41   26   55 1
    42   36   39 1
    43   43   44 1
    44   45   46 1
    45   45   50 1
    46   45   51 1
    47   46   52 1
    48   46   53 1
    49   46   63 1
    50   47   48 1
    51   47   62 1
    52   48   49 1
    53   48   54 1
    54   48   61 1
    55   49   56 1
    56   56   57 1
    57   57   60 1
    58   58   59 1
    59   61   64 1
    60   62   65 1
    61   63   66 1
@<TRIPOS>SUBSTRUCTURE
     1 WS2         1 TEMP              0 ****  ****    0 ROOT
