@<TRIPOS>MOLECULE
WS6
   32    34     1     0     0
SMALL
bcc


@<TRIPOS>ATOM
      1 O04          0.0000     0.0000     0.0000 o          1 WS6      -0.559500
      2 C04          1.2180     0.0000     0.0000 c          1 WS6       0.599700
      3 N03          1.9110     0.0000     1.1590 ns         1 WS6       0.029600
      4 C02          3.2720    -0.0030     1.1510 cc         1 WS6       0.007800
      5 N02          3.9400     0.0010     2.3420 nz         1 WS6       0.217400
      6 N01          3.9680    -0.0080     0.0280 nd         1 WS6      -0.433300
      7 C01          3.3610    -0.0100    -1.1510 cd         1 WS6       0.137600
      8 C4A          1.9470    -0.0080    -1.2190 cc         1 WS6      -0.053600
      9 N05          1.3300    -0.0300    -2.4010 ne         1 WS6      -0.296300
     10 N10          4.0700    -0.0220    -2.3320 nu         1 WS6      -0.305000
     11 C9A          3.4280     0.6020    -3.4980 c3         1 WS6       0.050900
     12 C09          4.0870     0.0960    -4.7830 c3         1 WS6      -0.028400
     13 C11          3.5710     2.1230    -3.4110 c3         1 WS6      -0.019100
     14 C5A          1.9710     0.1990    -3.5220 cf         1 WS6       0.298300
     15 C06          1.2990     0.0630    -4.7470 c          1 WS6       0.495800
     16 O06          0.1220    -0.2400    -4.7220 o          1 WS6      -0.486100
     17 C07          1.9400     0.2690    -6.0790 c3         1 WS6      -0.107400
     18 C08          3.3900     0.7410    -5.9790 c3         1 WS6      -0.023400
     19 H021         3.6580    -0.7900     2.8860 hn         1 WS6       0.218467
     20 H022         3.7280     0.8420     2.8410 hn         1 WS6       0.218467
     21 H10          4.9790    -0.4360    -2.3930 hn         1 WS6       0.314800
     22 H091         3.9870    -0.9810    -4.8420 hc         1 WS6       0.032700
     23 H092         5.1350     0.3700    -4.7840 hc         1 WS6       0.032700
     24 H111         2.7090     2.5930    -3.8690 hc         1 WS6       0.025700
     25 H112         3.6350     2.4210    -2.3710 hc         1 WS6       0.025700
     26 H113         4.4690     2.4320    -3.9310 hc         1 WS6       0.025700
     27 H081         3.4060     1.8170    -5.8620 hc         1 WS6       0.032700
     28 H082         3.9160     0.4670    -6.8860 hc         1 WS6       0.032700
     29 H071         1.3710     1.0110    -6.6270 hc         1 WS6       0.054200
     30 H072         1.9170    -0.6670    -6.6230 hc         1 WS6       0.054200
     31 H03          1.4200     0.0020     2.0310 hn         1 WS6       0.186500
     32 H023         4.9250    -0.0460     2.1720 hn         1 WS6       0.218467
@<TRIPOS>BOND
     1     1     2 2   
     2     2     3 1   
     3     2     8 1   
     4     3     4 1   
     5     3    31 1   
     6     4     5 1   
     7     4     6 2   
     8     5    19 1   
     9     5    20 1   
    10     5    32 1   
    11     6     7 1   
    12     7     8 2   
    13     7    10 1   
    14     8     9 1   
    15     9    14 2   
    16    10    11 1   
    17    10    21 1   
    18    11    12 1   
    19    11    13 1   
    20    11    14 1   
    21    12    18 1   
    22    12    22 1   
    23    12    23 1   
    24    13    24 1   
    25    13    25 1   
    26    13    26 1   
    27    14    15 1   
    28    15    16 2   
    29    15    17 1   
    30    17    18 1   
    31    17    29 1   
    32    17    30 1   
    33    18    27 1   
    34    18    28 1   
@<TRIPOS>SUBSTRUCTURE
     1 WS6         1 TEMP              0 ****  ****    0 ROOT
