@<TRIPOS>MOLECULE
molecule
   32    34     1     0     0
SMALL
bcc


@<TRIPOS>ATOM
      1 O04          0.0000     0.0000     0.0000 o          1 WS6      -0.517500
      2 C04          1.2180     0.0000     0.0000 c          1 WS6       0.709700
      3 N03          1.9110     0.0000     1.1590 ns         1 WS6      -0.452400
      4 C02          3.2720    -0.0030     1.1510 cc         1 WS6       0.477800
      5 N02          3.9400     0.0010     2.3420 nz         1 WS6      -0.733600
      6 N01          3.9680    -0.0080     0.0280 nd         1 WS6      -0.610300
      7 C01          3.3610    -0.0100    -1.1510 cd         1 WS6       0.354600
      8 C4A          1.9470    -0.0080    -1.2190 cc         1 WS6      -0.013600
      9 N05          1.3300    -0.0300    -2.4010 ne         1 WS6      -0.455300
     10 N10          4.0700    -0.0220    -2.3320 nu         1 WS6      -0.746000
     11 C9A          3.4280     0.6020    -3.4980 c3         1 WS6       0.162900
     12 C09          4.0870     0.0960    -4.7830 c3         1 WS6      -0.086400
     13 C11          3.5710     2.1230    -3.4110 c3         1 WS6      -0.106100
     14 C5A          1.9710     0.1990    -3.5220 cf         1 WS6       0.378300
     15 C06          1.2990     0.0630    -4.7470 c          1 WS6       0.468800
     16 O06          0.1220    -0.2400    -4.7220 o          1 WS6      -0.450100
     17 C07          1.9400     0.2690    -6.0790 c3         1 WS6      -0.172400
     18 C08          3.3900     0.7410    -5.9790 c3         1 WS6      -0.080400
     19 H021         3.6580    -0.7900     2.8860 hn         1 WS6       0.479800
     20 H022         3.7280     0.8420     2.8410 hn         1 WS6       0.479800
     21 H10          4.9790    -0.4360    -2.3930 hn         1 WS6       0.471800
     22 H091         3.9870    -0.9810    -4.8420 hc         1 WS6       0.064200
     23 H092         5.1350     0.3700    -4.7840 hc         1 WS6       0.064200
     24 H111         2.7090     2.5930    -3.8690 hc         1 WS6       0.058367
     25 H112         3.6350     2.4210    -2.3710 hc         1 WS6       0.058367
     26 H113         4.4690     2.4320    -3.9310 hc         1 WS6       0.058367
     27 H081         3.4060     1.8170    -5.8620 hc         1 WS6       0.064200
     28 H082         3.9160     0.4670    -6.8860 hc         1 WS6       0.064200
     29 H071         1.3710     1.0110    -6.6270 hc         1 WS6       0.092200
     30 H072         1.9170    -0.6670    -6.6230 hc         1 WS6       0.092200
     31 H03          1.4200     0.0020     2.0310 hn         1 WS6       0.347500
     32 H023         4.9250    -0.0460     2.1720 hn         1 WS6       0.479800
@<TRIPOS>BOND
     1     1     2 2
     2     2     3 1
     3     2     8 1
     4     3     4 1
     5     4     5 1
     6     4     6 2
     7     6     7 1
     8     7     8 2
     9     7    10 1
    10     8     9 1
    11     9    14 2
    12    10    11 1
    13    11    12 1
    14    11    13 1
    15    11    14 1
    16    12    18 1
    17    14    15 1
    18    15    16 2
    19    15    17 1
    20    17    18 1
    21     5    19 1
    22     5    20 1
    23    10    21 1
    24    12    22 1
    25    12    23 1
    26    13    24 1
    27    13    25 1
    28    13    26 1
    29    18    27 1
    30    18    28 1
    31    17    29 1
    32    17    30 1
    33     3    31 1
    34    32     5 1
@<TRIPOS>SUBSTRUCTURE
     1 WS6         1 TEMP              0 ****  ****    0 ROOT
