@<TRIPOS>MOLECULE
WS7
   33    35     1     0     0
SMALL
bcc


@<TRIPOS>ATOM
      1 O04          0.0000     0.0000     0.0000 o          1 WS7      -0.573500
      2 C04          1.2200     0.0000     0.0000 c          1 WS7       0.595700
      3 N03          1.9080     0.0000     1.1600 ns         1 WS7       0.028600
      4 C02          3.2690    -0.0000     1.1530 cc         1 WS7       0.006800
      5 N02          3.9430    -0.0040     2.3440 nz         1 WS7       0.219400
      6 N01          3.9530     0.0050     0.0280 nd         1 WS7      -0.446300
      7 C1A          3.3380     0.0080    -1.1580 cd         1 WS7       0.147600
      8 C4A          1.9410    -0.0080    -1.2170 cc         1 WS7      -0.029600
      9 N05          1.2600    -0.0370    -2.3980 ne         1 WS7      -0.415300
     10 N10          4.0880     0.0280    -2.3190 nu         1 WS7      -0.311000
     11 C9A          3.3620     0.0720    -3.5980 c3         1 WS7       0.024900
     12 C09          3.8270    -1.1190    -4.4380 c3         1 WS7      -0.043400
     13 C10          3.7600     1.3550    -4.3310 c3         1 WS7      -0.025100
     14 C5A          1.8520    -0.0230    -3.5380 c2         1 WS7       0.422300
     15 C06          1.0760    -0.1080    -4.8290 c3         1 WS7      -0.055700
     16 C07          1.6430    -1.2680    -5.6560 c3         1 WS7      -0.021400
     17 C08          3.1560    -1.0660    -5.8110 c3         1 WS7      -0.032400
     18 H021         3.7010     0.8130     2.8680 hn         1 WS7       0.217467
     19 H022         4.9280    -0.0090     2.1700 hn         1 WS7       0.217467
     20 H10          5.0890     0.0130    -2.2900 hn         1 WS7       0.317800
     21 H091         3.5520    -2.0400    -3.9380 hc         1 WS7       0.027700
     22 H092         4.9020    -1.0750    -4.5600 hc         1 WS7       0.027700
     23 H101         3.0610     1.5410    -5.1370 hc         1 WS7       0.027367
     24 H102         3.7410     2.1870    -3.6380 hc         1 WS7       0.027367
     25 H103         4.7580     1.2450    -4.7360 hc         1 WS7       0.027367
     26 H081         3.3450    -0.1020    -6.2660 hc         1 WS7       0.031200
     27 H082         3.5610    -1.8520    -6.4380 hc         1 WS7       0.031200
     28 H061         0.0300    -0.2910    -4.6140 hc         1 WS7       0.046200
     29 H062         1.1850     0.8190    -5.3800 hc         1 WS7       0.046200
     30 H071         1.1770    -1.2790    -6.6340 hc         1 WS7       0.030200
     31 H072         1.4520    -2.2050    -5.1460 hc         1 WS7       0.030200
     32 H03          1.4150     0.0000     2.0310 hn         1 WS7       0.185500
     33 H023         3.6930    -0.8210     2.8660 hn         1 WS7       0.217467
@<TRIPOS>BOND
     1     1     2 2   
     2     2     3 1   
     3     2     8 1   
     4     3     4 1   
     5     3    32 1   
     6     4     5 1   
     7     4     6 2   
     8     5    18 1   
     9     5    19 1   
    10     5    33 1   
    11     6     7 1   
    12     7     8 2   
    13     7    10 1   
    14     8     9 1   
    15     9    14 2   
    16    10    11 1   
    17    10    20 1   
    18    11    12 1   
    19    11    13 1   
    20    11    14 1   
    21    12    17 1   
    22    12    21 1   
    23    12    22 1   
    24    13    23 1   
    25    13    24 1   
    26    13    25 1   
    27    14    15 1   
    28    15    16 1   
    29    15    28 1   
    30    15    29 1   
    31    16    17 1   
    32    16    30 1   
    33    16    31 1   
    34    17    26 1   
    35    17    27 1   
@<TRIPOS>SUBSTRUCTURE
     1 WS7         1 TEMP              0 ****  ****    0 ROOT
