@<TRIPOS>MOLECULE
molecule
   62    66     1     0     0
SMALL
bcc


@<TRIPOS>ATOM
      1 CD2          0.0000     0.0000     0.0000 ca         1 WSA      -0.126800
      2 CE3          1.3960     0.0000     0.0000 ca         1 WSA      -0.139000
      3 CZ3          2.0740     0.0000     1.1860 ca         1 WSA      -0.113000
      4 CH2          1.3860    -0.0000     2.3920 ca         1 WSA      -0.094000
      5 CZ2          0.0080    -0.0010     2.4150 ca         1 WSA      -0.113000
      6 CE2         -0.7020    -0.0000     1.2190 ca         1 WSA      -0.029200
      7 N11         -2.0460     0.0010     0.9140 na         1 WSA      -0.159400
      8 CD1         -2.2140     0.0010    -0.4440 cc         1 WSA      -0.038100
      9 CG          -1.0180     0.0060    -1.0530 cd         1 WSA      -0.259400
     10 CB          -0.7700     0.0120    -2.5400 c3         1 WSA      -0.005200
     11 CA          -0.5620    -1.4220    -3.0290 c3         1 WSA       0.024500
     12 NH3          0.6630    -1.9700    -2.4330 nz         1 WSA      -0.793600
     13 C           -0.4360    -1.4280    -4.5310 c          1 WSA       0.664100
     14 O            0.6590    -1.4920    -5.0470 o          1 WSA      -0.525100
     15 NS          -1.5410    -1.3610    -5.3000 ns         1 WSA      -0.659300
     16 S           -1.4030    -1.3660    -6.9500 s6         1 WSA       1.640100
     17 O1S         -2.7280    -1.3220    -7.4640 o          1 WSA      -0.596800
     18 O2S         -0.4110    -0.4010    -7.2730 o          1 WSA      -0.596800
     19 O5'         -0.8330    -2.7190    -7.3500 os         1 WSA      -0.526500
     20 C5'         -1.7740    -3.7920    -7.2740 c3         1 WSA       0.155400
     21 C4'         -1.0950    -5.0970    -7.6950 c3         1 WSA       0.130100
     22 O4'         -0.0850    -5.4540    -6.7370 os         1 WSA      -0.421600
     23 C3'         -2.1270    -6.2410    -7.7200 c3         1 WSA       0.086100
     24 O3'         -2.2220    -6.8010    -9.0310 oh         1 WSA      -0.556800
     25 C2'         -1.5630    -7.2830    -6.7250 c3         1 WSA       0.095100
     26 O2'         -1.7260    -8.6100    -7.2290 oh         1 WSA      -0.545800
     27 C1'         -0.0630    -6.8970    -6.6650 c3         1 WSA       0.264800
     28 N9           0.5350    -7.3410    -5.4030 na         1 WSA      -0.253000
     29 C8           0.6010    -6.6240    -4.2460 cc         1 WSA       0.410700
     30 N7           1.1970    -7.3220    -3.3230 nd         1 WSA      -0.581100
     31 C5           1.5500    -8.5280    -3.8290 ca         1 WSA      -0.171200
     32 C4           1.1250    -8.5560    -5.1690 ca         1 WSA       0.464800
     33 N3           1.3500    -9.6460    -5.8950 nb         1 WSA      -0.741000
     34 C2           1.9610   -10.6880    -5.3700 ca         1 WSA       0.722900
     35 N1           2.3760   -10.7090    -4.1170 nb         1 WSA      -0.758000
     36 C6           2.2030    -9.6620    -3.3170 ca         1 WSA       0.786200
     37 N6           2.6400    -9.6940    -2.0040 nv         1 WSA      -1.074500
     38 HE3          1.9400     0.0000    -0.9370 ha         1 WSA       0.104000
     39 HZ3          3.1570     0.0000     1.1860 ha         1 WSA       0.149000
     40 HH2          1.9380    -0.0000     3.3250 ha         1 WSA       0.157000
     41 HZ2         -0.5200    -0.0010     3.3600 ha         1 WSA       0.149000
     42 HN11        -2.7880    -0.0030     1.5850 hn         1 WSA       0.320700
     43 HD1         -3.1700    -0.0030    -0.9520 h4         1 WSA       0.176000
     44 HB1         -1.6230     0.4470    -3.0470 hc         1 WSA       0.093200
     45 HB2          0.1150     0.5990    -2.7560 hc         1 WSA       0.093200
     46 HA          -1.4100    -2.0300    -2.7360 hx         1 WSA       0.117700
     47 HH31         0.4710    -2.2780    -1.5000 hn         1 WSA       0.467133
     48 HH32         0.9830    -2.7450    -2.9800 hn         1 WSA       0.467133
     49 HNS         -2.4450    -1.3000    -4.8730 hn         1 WSA       0.353500
     50 H5'1        -2.1340    -3.8850    -6.2570 h1         1 WSA       0.064200
     51 H5'2        -2.6070    -3.5880    -7.9350 h1         1 WSA       0.064200
     52 H4'         -0.6480    -4.9860    -8.6760 h1         1 WSA       0.112700
     53 H3'         -3.0930    -5.8840    -7.3830 h1         1 WSA       0.044700
     54 HO3'        -3.1080    -6.7220    -9.3430 ho         1 WSA       0.416000
     55 H2'         -2.0260    -7.1730    -5.7520 h1         1 WSA       0.051700
     56 HO2'        -2.5320    -8.9740    -6.9000 ho         1 WSA       0.413000
     57 H1'          0.4690    -7.3110    -7.5120 h2         1 WSA       0.130700
     58 H8           0.2140    -5.6200    -4.1130 h5         1 WSA       0.052800
     59 H2           2.1220   -11.5630    -5.9880 h5         1 WSA       0.075100
     60 HN61         2.0310   -10.0240    -1.2820 hn         1 WSA       0.447800
     61 HN62         3.5630    -9.3810    -1.7760 hn         1 WSA       0.447800
     62 HH33         1.3670    -1.2600    -2.4070 hn         1 WSA       0.467133
@<TRIPOS>BOND
     1     1     2 ar
     2     1     6 ar
     3     1     9 1
     4     2     3 ar
     5     2    38 1
     6     3     4 ar
     7     3    39 1
     8     4     5 ar
     9     4    40 1
    10     5     6 ar
    11     5    41 1
    12     6     7 1
    13     7     8 1
    14     7    42 1
    15     8     9 2
    16     8    43 1
    17     9    10 1
    18    10    11 1
    19    10    44 1
    20    10    45 1
    21    11    13 1
    22    11    12 1
    23    11    46 1
    24    12    47 1
    25    12    48 1
    26    13    15 1
    27    13    14 2
    28    15    16 1
    29    15    49 1
    30    16    19 1
    31    16    18 2
    32    16    17 2
    33    19    20 1
    34    20    21 1
    35    20    50 1
    36    20    51 1
    37    21    22 1
    38    21    23 1
    39    21    52 1
    40    22    27 1
    41    23    24 1
    42    23    25 1
    43    23    53 1
    44    24    54 1
    45    25    27 1
    46    25    26 1
    47    25    55 1
    48    26    56 1
    49    27    28 1
    50    27    57 1
    51    28    32 1
    52    28    29 1
    53    29    30 2
    54    29    58 1
    55    30    31 1
    56    31    36 ar
    57    31    32 ar
    58    32    33 ar
    59    33    34 ar
    60    34    35 ar
    61    34    59 1
    62    35    36 ar
    63    36    37 1
    64    37    60 1
    65    37    61 1
    66    62    12 1
@<TRIPOS>SUBSTRUCTURE
     1 WSA         1 TEMP              0 ****  ****    0 ROOT
