@<TRIPOS>MOLECULE
WSD
   31    32     1     0     0
SMALL
bcc


@<TRIPOS>ATOM
      1 O4A          0.0000     0.0000     0.0000 o          1 WSD      -0.569500
      2 C04          1.2180     0.0000     0.0000 c          1 WSD       0.604700
      3 C4A          1.9480     0.0000     1.2200 cc         1 WSD      -0.066600
      4 N05          1.3310     0.0080     2.4020 ne         1 WSD      -0.333300
      5 N03          1.9120    -0.0050    -1.1590 ns         1 WSD       0.030600
      6 C02          3.2720    -0.0150    -1.1510 cc         1 WSD       0.016800
      7 N02          3.9410    -0.0130    -2.3420 nz         1 WSD       0.214400
      8 N01          3.9670    -0.0260    -0.0280 nd         1 WSD      -0.436300
      9 C8A          3.3610    -0.0280     1.1530 cd         1 WSD       0.149600
     10 N08          4.0720    -0.0670     2.3310 nu         1 WSD      -0.300000
     11 C07          3.4510     0.5480     3.5150 c3         1 WSD       0.061900
     12 C12          4.0980    -0.0130     4.7820 c3         1 WSD      -0.019100
     13 C11          3.6490     2.0640     3.4680 c3         1 WSD      -0.019100
     14 C06          1.9770     0.2300     3.5160 cf         1 WSD       0.291300
     15 C09          1.2840     0.1690     4.7410 c          1 WSD       0.517800
     16 O09          1.8450     0.4810     5.7730 o          1 WSD      -0.528100
     17 C10         -0.1540    -0.2820     4.7720 c3         1 WSD      -0.076100
     18 H021         3.6880    -0.8260    -2.8680 hn         1 WSD       0.220467
     19 H022         3.6980     0.8080    -2.8600 hn         1 WSD       0.220467
     20 H08          4.9740    -0.4970     2.3800 hn         1 WSD       0.316800
     21 H121         3.6920    -0.9960     4.9900 hc         1 WSD       0.031033
     22 H122         5.1690    -0.0880     4.6380 hc         1 WSD       0.031033
     23 H123         3.8910     0.6460     5.6160 hc         1 WSD       0.031033
     24 H111         2.8960     2.5070     2.8260 hc         1 WSD       0.031033
     25 H112         3.5560     2.4720     4.4670 hc         1 WSD       0.031033
     26 H113         4.6340     2.2880     3.0770 hc         1 WSD       0.031033
     27 H101        -0.7500     0.3700     4.1450 hc         1 WSD       0.036700
     28 H102        -0.2220    -1.2980     4.4050 hc         1 WSD       0.036700
     29 H103        -0.5230    -0.2400     5.7900 hc         1 WSD       0.036700
     30 H03          1.4220    -0.0010    -2.0320 hn         1 WSD       0.186500
     31 H023         4.9270    -0.0200    -2.1710 hn         1 WSD       0.220467
@<TRIPOS>BOND
     1     1     2 2   
     2     2     3 1   
     3     2     5 1   
     4     3     4 1   
     5     3     9 2   
     6     4    14 2   
     7     5     6 1   
     8     5    30 1   
     9     6     7 1   
    10     6     8 2   
    11     7    18 1   
    12     7    19 1   
    13     7    31 1   
    14     8     9 1   
    15     9    10 1   
    16    10    11 1   
    17    10    20 1   
    18    11    12 1   
    19    11    13 1   
    20    11    14 1   
    21    12    21 1   
    22    12    22 1   
    23    12    23 1   
    24    13    24 1   
    25    13    25 1   
    26    13    26 1   
    27    14    15 1   
    28    15    16 2   
    29    15    17 1   
    30    17    27 1   
    31    17    28 1   
    32    17    29 1   
@<TRIPOS>SUBSTRUCTURE
     1 WSD         1 TEMP              0 ****  ****    0 ROOT
