@<TRIPOS>MOLECULE
molecule
   53    57     1     0     0
SMALL
bcc


@<TRIPOS>ATOM
      1 C17          0.0000     0.0000     0.0000 ca         1 WSH      -0.109000
      2 C10          2.6170    -7.2310     9.6940 ca         1 WSH      -0.116000
      3 C18          1.3840     0.0000     0.0000 ca         1 WSH      -0.138000
      4 C16         -0.6970    -0.0000     1.1950 ca         1 WSH      -0.138000
      5 C22          4.9500    -2.2530     2.7690 ca         1 WSH      -0.134000
      6 C11          3.0980    -6.1460    10.4030 ca         1 WSH      -0.133500
      7 C9           1.6730    -7.0440     8.7010 ca         1 WSH      -0.133500
      8 C23          6.0220    -1.6600     3.4150 ca         1 WSH      -0.096000
      9 C19          2.0760     0.0000     1.1930 ca         1 WSH      -0.092000
     10 C15         -0.0160     0.0010     2.3950 ca         1 WSH      -0.092000
     11 C21          3.6890    -1.7140     2.8820 ca         1 WSH      -0.084000
     12 C12          2.6340    -4.8750    10.1190 ca         1 WSH      -0.101500
     13 C8           1.2090    -5.7730     8.4180 ca         1 WSH      -0.101500
     14 C24          5.8260    -0.5310     4.1820 ca         1 WSH      -0.146000
     15 C14          1.3790     0.0000     2.4010 ca         1 WSH      -0.153900
     16 C20          3.4720    -0.5590     3.6500 ca         1 WSH      -0.190900
     17 C7           1.6890    -4.6880     9.1270 ca         1 WSH      -0.102300
     18 C25          4.5550     0.0190     4.3150 ca         1 WSH       0.013800
     19 C3           3.3350     1.3730     5.9570 cc         1 WSH       0.324800
     20 C2           5.2620     2.1580     5.3400 cc         1 WSH       0.374800
     21 C13          2.1170    -0.0010     3.6860 ce         1 WSH       0.547500
     22 C4           2.0900     0.5270     6.0360 c3         1 WSH       0.315600
     23 C6           1.1840    -3.3030     8.8190 c3         1 WSH       0.215700
     24 N2           3.6000     2.4580     6.6260 nd         1 WSH      -0.317000
     25 N1           4.7380     2.9300     6.2550 nd         1 WSH      -0.344000
     26 N4           1.4900     0.4900     4.6980 n2         1 WSH      -0.590900
     27 N5           4.3960     1.1270     5.1480 na         1 WSH      -0.246800
     28 N3           2.4380    -0.8310     6.4630 ns         1 WSH      -0.585900
     29 O1           0.7490    -0.8820     7.9040 o          1 WSH      -0.600000
     30 O2           2.0200    -2.6980     7.7980 os         1 WSH      -0.436900
     31 H17         -0.5390    -0.0000    -0.9390 ha         1 WSH       0.132000
     32 H18          1.9240     0.0000    -0.9390 ha         1 WSH       0.135000
     33 H16         -1.7810    -0.0000     1.1890 ha         1 WSH       0.135000
     34 H11          3.8380    -6.2910    11.1810 ha         1 WSH       0.132500
     35 H9           1.2960    -7.8940     8.1450 ha         1 WSH       0.132500
     36 H19          3.1600    -0.0000     1.1920 ha         1 WSH       0.146500
     37 H15         -0.5630     0.0010     3.3300 ha         1 WSH       0.146500
     38 H22          5.1060    -3.1390     2.1670 ha         1 WSH       0.144000
     39 H23          7.0130    -2.0880     3.3230 ha         1 WSH       0.144000
     40 H21          2.8570    -2.1850     2.3730 ha         1 WSH       0.156000
     41 H12          3.0110    -4.0240    10.6740 ha         1 WSH       0.134500
     42 H8           0.4690    -5.6270     7.6410 ha         1 WSH       0.134500
     43 H24          6.6670    -0.0700     4.6860 ha         1 WSH       0.151000
     44 H61C         1.2170    -2.6990     9.7180 h1         1 WSH       0.059200
     45 H62C         0.1630    -3.3620     8.4610 h1         1 WSH       0.059200
     46 H4           1.3920     0.9700     6.7360 h2         1 WSH       0.158700
     47 H3           3.2460    -1.2820     6.0830 hn         1 WSH       0.326500
     48 C1           6.5760     2.3690     4.6330 c3         1 WSH      -0.108400
     49 C5           1.7010    -1.4500     7.4070 c          1 WSH       0.757100
     50 H10          2.9800    -8.2270     9.9160 ha         1 WSH       0.131000
     51 H11C         7.3340     1.7370     5.0810 hc         1 WSH       0.061033
     52 H12C         6.8730     3.4070     4.7230 hc         1 WSH       0.061033
     53 H13C         6.4680     2.1150     3.5850 hc         1 WSH       0.061033
@<TRIPOS>BOND
     1     1     3 ar
     2     1     4 ar
     3     2     6 ar
     4     2     7 ar
     5     3     9 ar
     6     4    10 ar
     7     5     8 ar
     8     5    11 ar
     9     6    12 ar
    10     7    13 ar
    11     8    14 ar
    12     9    15 ar
    13    10    15 ar
    14    11    16 ar
    15    12    17 ar
    16    13    17 ar
    17    14    18 ar
    18    15    21 1
    19    16    18 ar
    20    16    21 1
    21    17    23 1
    22    18    27 1
    23    19    22 1
    24    19    24 2
    25    19    27 1
    26    20    48 1
    27    20    25 2
    28    20    27 1
    29    21    26 2
    30    49    28 1
    31    49    29 2
    32    49    30 1
    33    22    26 1
    34    22    28 1
    35    23    30 1
    36    24    25 1
    37     1    31 1
    38     3    32 1
    39     4    33 1
    40     2    50 1
    41     6    34 1
    42     7    35 1
    43     9    36 1
    44    10    37 1
    45     5    38 1
    46     8    39 1
    47    11    40 1
    48    12    41 1
    49    13    42 1
    50    14    43 1
    51    23    44 1
    52    23    45 1
    53    22    46 1
    54    48    51 1
    55    48    52 1
    56    48    53 1
    57    28    47 1
@<TRIPOS>SUBSTRUCTURE
     1 WSH         1 TEMP              0 ****  ****    0 ROOT
