@<TRIPOS>MOLECULE
WSH
   53    57     1     0     0
SMALL
bcc


@<TRIPOS>ATOM
      1 C17          0.0000     0.0000     0.0000 ca         1 WSH      -0.082000
      2 C10          2.6170    -7.2310     9.6940 ca         1 WSH      -0.090000
      3 C18          1.3840     0.0000     0.0000 ca         1 WSH      -0.109500
      4 C16         -0.6970    -0.0000     1.1950 ca         1 WSH      -0.109500
      5 C22          4.9500    -2.2530     2.7690 ca         1 WSH      -0.092000
      6 C11          3.0980    -6.1460    10.4030 ca         1 WSH      -0.107000
      7 C9           1.6730    -7.0440     8.7010 ca         1 WSH      -0.107000
      8 C23          6.0220    -1.6600     3.4150 ca         1 WSH      -0.067000
      9 C19          2.0760     0.0000     1.1930 ca         1 WSH      -0.071000
     10 C15         -0.0160     0.0010     2.3950 ca         1 WSH      -0.071000
     11 C21          3.6890    -1.7140     2.8820 ca         1 WSH      -0.063000
     12 C12          2.6340    -4.8750    10.1190 ca         1 WSH      -0.074500
     13 C8           1.2090    -5.7730     8.4180 ca         1 WSH      -0.074500
     14 C24          5.8260    -0.5310     4.1820 ca         1 WSH      -0.115000
     15 C14          1.3790     0.0000     2.4010 ca         1 WSH      -0.163900
     16 C20          3.4720    -0.5590     3.6500 ca         1 WSH      -0.159900
     17 C7           1.6890    -4.6880     9.1270 ca         1 WSH      -0.121300
     18 C25          4.5550     0.0190     4.3150 ca         1 WSH      -0.163200
     19 C3           3.3350     1.3730     5.9570 cc         1 WSH       0.107800
     20 C2           5.2620     2.1580     5.3400 cc         1 WSH       0.169800
     21 C13          2.1170    -0.0010     3.6860 ce         1 WSH       0.506500
     22 C4           2.0900     0.5270     6.0360 c3         1 WSH       0.208600
     23 C6           1.1840    -3.3030     8.8190 c3         1 WSH       0.302700
     24 N2           3.6000     2.4580     6.6260 nd         1 WSH      -0.277000
     25 N1           4.7380     2.9300     6.2550 nd         1 WSH      -0.321000
     26 N4           1.4900     0.4900     4.6980 n2         1 WSH      -0.514900
     27 N5           4.3960     1.1270     5.1480 na         1 WSH       0.281200
     28 N3           2.4380    -0.8310     6.4630 ns         1 WSH      -0.206900
     29 O1           0.7490    -0.8820     7.9040 o          1 WSH      -0.640000
     30 O2           2.0200    -2.6980     7.7980 os         1 WSH      -0.421900
     31 H17         -0.5390    -0.0000    -0.9390 ha         1 WSH       0.103000
     32 H18          1.9240     0.0000    -0.9390 ha         1 WSH       0.106500
     33 H16         -1.7810    -0.0000     1.1890 ha         1 WSH       0.106500
     34 H11          3.8380    -6.2910    11.1810 ha         1 WSH       0.104000
     35 H9           1.2960    -7.8940     8.1450 ha         1 WSH       0.104000
     36 H19          3.1600    -0.0000     1.1920 ha         1 WSH       0.118500
     37 H15         -0.5630     0.0010     3.3300 ha         1 WSH       0.118500
     38 H22          5.1060    -3.1390     2.1670 ha         1 WSH       0.114000
     39 H23          7.0130    -2.0880     3.3230 ha         1 WSH       0.113000
     40 H21          2.8570    -2.1850     2.3730 ha         1 WSH       0.129000
     41 H12          3.0110    -4.0240    10.6740 ha         1 WSH       0.107000
     42 H8           0.4690    -5.6270     7.6410 ha         1 WSH       0.107000
     43 H24          6.6670    -0.0700     4.6860 ha         1 WSH       0.131000
     44 H61C         1.2170    -2.6990     9.7180 h1         1 WSH       0.016700
     45 H62C         0.1630    -3.3620     8.4610 h1         1 WSH       0.016700
     46 H4           1.3920     0.9700     6.7360 h2         1 WSH       0.110700
     47 H3           3.2460    -1.2820     6.0830 hn         1 WSH       0.180500
     48 C1           6.5760     2.3690     4.6330 c3         1 WSH       0.007600
     49 C5           1.7010    -1.4500     7.4070 c          1 WSH       0.692100
     50 H10          2.9800    -8.2270     9.9160 ha         1 WSH       0.102000
     51 H11C         7.3340     1.7370     5.0810 hc         1 WSH       0.018700
     52 H12C         6.8730     3.4070     4.7230 hc         1 WSH       0.018700
     53 H13C         6.4680     2.1150     3.5850 hc         1 WSH       0.018700
@<TRIPOS>BOND
     1     1     3 ar  
     2     1     4 ar  
     3     1    31 1   
     4     2     6 ar  
     5     2     7 ar  
     6     2    50 1   
     7     3     9 ar  
     8     3    32 1   
     9     4    10 ar  
    10     4    33 1   
    11     5     8 ar  
    12     5    11 ar  
    13     5    38 1   
    14     6    12 ar  
    15     6    34 1   
    16     7    13 ar  
    17     7    35 1   
    18     8    14 ar  
    19     8    39 1   
    20     9    15 ar  
    21     9    36 1   
    22    10    15 ar  
    23    10    37 1   
    24    11    16 ar  
    25    11    40 1   
    26    12    17 ar  
    27    12    41 1   
    28    13    17 ar  
    29    13    42 1   
    30    14    18 ar  
    31    14    43 1   
    32    15    21 1   
    33    16    18 ar  
    34    16    21 1   
    35    17    23 1   
    36    18    27 1   
    37    19    22 1   
    38    19    24 2   
    39    19    27 1   
    40    20    25 2   
    41    20    27 1   
    42    20    48 1   
    43    21    26 2   
    44    22    26 1   
    45    22    28 1   
    46    22    46 1   
    47    23    30 1   
    48    23    44 1   
    49    23    45 1   
    50    24    25 1   
    51    28    47 1   
    52    28    49 1   
    53    29    49 2   
    54    30    49 1   
    55    48    51 1   
    56    48    52 1   
    57    48    53 1   
@<TRIPOS>SUBSTRUCTURE
     1 WSH         1 TEMP              0 ****  ****    0 ROOT
