@<TRIPOS>MOLECULE
molecule
   40    42     1     0     0
SMALL
bcc


@<TRIPOS>ATOM
      1 C0           0.0000     0.0000     0.0000 ca         1 WSK      -0.053400
      2 N0           1.8400    -0.0000     3.7130 na         1 WSK      -0.075300
      3 O0           3.0220     2.0820     5.3380 oh         1 WSK      -0.590800
      4 C1           1.3870     0.0000     0.0000 ca         1 WSK      -0.074000
      5 N1           5.6990     2.8310     4.7290 n3         1 WSK      -0.664600
      6 C2           2.0880     0.0000     1.1860 ca         1 WSK      -0.149500
      7 C3           1.4050    -0.0000     2.3990 ca         1 WSK       0.021300
      8 C4           0.0020    -0.0010     2.3970 cp         1 WSK      -0.090000
      9 C5          -0.6940    -0.0010     1.1920 ca         1 WSK      -0.045000
     10 C6          -0.4170    -0.0020     3.8110 cp         1 WSK      -0.090000
     11 C7           0.7570    -0.0060     4.5760 ca         1 WSK       0.021300
     12 C8           0.6670    -0.0030     5.9640 ca         1 WSK      -0.149500
     13 C9          -0.5680    -0.0030     6.5760 ca         1 WSK      -0.074000
     14 C10         -1.7300    -0.0020     5.8180 ca         1 WSK      -0.053400
     15 C11         -1.6600    -0.0020     4.4400 ca         1 WSK      -0.045000
     16 C12          3.2440     0.0000     4.1300 c3         1 WSK       0.048300
     17 C13          3.7330     1.4430     4.2750 c3         1 WSK       0.129100
     18 C14          5.2300     1.4460     4.5890 c3         1 WSK       0.112800
     19 C15          7.0650     2.7620     5.2630 c3         1 WSK       0.120100
     20 C16          5.8040     3.3790     3.3700 c3         1 WSK       0.120100
     21 Br1         -3.4140    -0.0030     6.6770 br         1 WSK      -0.097100
     22 Br2         -0.9420    -0.0010    -1.6400 br         1 WSK      -0.097100
     23 H13          2.7680     2.9490     5.0690 ho         1 WSK       0.416000
     24 H1           1.9230     0.0010    -0.9410 ha         1 WSK       0.146000
     25 H2           3.1710    -0.0000     1.1750 ha         1 WSK       0.139500
     26 H3          -1.7780    -0.0010     1.1900 ha         1 WSK       0.147000
     27 H4           1.5680    -0.0030     6.5650 ha         1 WSK       0.139500
     28 H5          -0.6320    -0.0030     7.6570 ha         1 WSK       0.146000
     29 H6          -2.5680    -0.0010     3.8500 ha         1 WSK       0.147000
     30 H8           3.8420    -0.5100     3.3850 h1         1 WSK       0.069200
     31 H9           3.3390    -0.5100     5.0810 h1         1 WSK       0.069200
     32 H10          3.5570     1.9790     3.3500 h1         1 WSK       0.044700
     33 H11          5.7690     0.9620     3.7830 h1         1 WSK       0.044700
     34 H12          5.4060     0.9100     5.5140 h1         1 WSK       0.044700
     35 H17          7.6870     2.1850     4.5890 h1         1 WSK       0.036700
     36 H18          7.0490     2.2870     6.2360 h1         1 WSK       0.036700
     37 H19          7.4670     3.7640     5.3560 h1         1 WSK       0.036700
     38 H14          6.5440     4.1710     3.3570 h1         1 WSK       0.036700
     39 H15          6.1030     2.5940     2.6860 h1         1 WSK       0.036700
     40 H16          4.8440     3.7770     3.0660 h1         1 WSK       0.036700
@<TRIPOS>BOND
     1     1     4 ar
     2     1     9 ar
     3     1    22 1
     4     2     7 1
     5     2    11 1
     6     2    16 1
     7     3    17 1
     8     3    23 1
     9     4     6 ar
    10     4    24 1
    11     5    18 1
    12     5    19 1
    13     5    20 1
    14     6     7 ar
    15     6    25 1
    16     7     8 ar
    17     8     9 ar
    18     8    10 1
    19     9    26 1
    20    10    11 ar
    21    10    15 ar
    22    11    12 ar
    23    12    13 ar
    24    12    27 1
    25    13    14 ar
    26    13    28 1
    27    14    15 ar
    28    14    21 1
    29    15    29 1
    30    16    17 1
    31    16    30 1
    32    16    31 1
    33    17    18 1
    34    17    32 1
    35    18    33 1
    36    18    34 1
    37    19    35 1
    38    19    36 1
    39    19    37 1
    40    20    38 1
    41    20    39 1
    42    20    40 1
@<TRIPOS>SUBSTRUCTURE
     1 WSK         1 TEMP              0 ****  ****    0 ROOT
