@<TRIPOS>MOLECULE
WST
   39    42     1     0     0
SMALL
bcc


@<TRIPOS>ATOM
      1 C1          0.0400   -0.0140   -0.0210 ca        1 WST     -0.156300
      2 C2          1.4440   -0.1450    0.0320 ca        1 WST      0.150100
      3 O3          2.1040   -0.2400   -1.1740 oh        1 WST     -0.498100
      4 C4          2.1320   -0.1740    1.2520 ca        1 WST     -0.242000
      5 C5          1.4200   -0.0800    2.4460 ca        1 WST     -0.070000
      6 C6          0.0340    0.0180    2.4380 ca        1 WST     -0.184000
      7 C7         -0.6420    0.0390    1.2050 ca        1 WST      0.154100
      8 O8         -2.0180    0.1410    1.2790 os        1 WST     -0.324900
      9 C9         -2.6930   -0.4240    0.1350 c3        1 WST      0.199400
     10 C11        -2.1990    0.1960   -1.1680 c3        1 WST     -0.085700
     11 C13        -0.6750    0.0670   -1.3250 c3        1 WST      0.000600
     12 C15        -0.2490    1.2960   -2.1390 c3        1 WST     -0.067400
     13 C16        -1.3540    2.3360   -2.0210 c3        1 WST     -0.078400
     14 C17        -2.5260    1.6820   -1.3040 c3        1 WST     -0.072400
     15 C18        -4.1640   -0.2330    0.3450 ca        1 WST     -0.121300
     16 C19        -4.6630    0.7620    1.1900 ca        1 WST     -0.076500
     17 C20        -6.0360    0.9140    1.3680 ca        1 WST     -0.187500
     18 C21        -6.9140    0.0600    0.6880 ca        1 WST      0.127100
     19 O22        -8.2820    0.1490    0.8100 oh        1 WST     -0.497100
     20 C23        -6.4260   -0.9460   -0.1640 ca        1 WST     -0.187500
     21 C24        -5.0530   -1.0850   -0.3250 ca        1 WST     -0.076500
     22 HO3         3.0490   -0.3420   -0.9860 ho        1 WST      0.419000
     23 H4          3.2270   -0.2700    1.2640 ha        1 WST      0.134000
     24 H5          1.9610   -0.0930    3.4040 ha        1 WST      0.135000
     25 H6         -0.5420    0.0780    3.3700 ha        1 WST      0.150000
     26 H9         -2.4570   -1.5290    0.1200 h1        1 WST      0.056700
     27 H11        -2.6920   -0.3640   -2.0090 hc        1 WST      0.060700
     28 H13        -0.4280   -0.8660   -1.9060 hc        1 WST      0.064700
     29 H151       -0.1060    0.9990   -3.2080 hc        1 WST      0.050200
     30 H152        0.7290    1.6960   -1.7720 hc        1 WST      0.050200
     31 H161       -1.6620    2.6950   -3.0350 hc        1 WST      0.041200
     32 H162       -0.9960    3.2280   -1.4480 hc        1 WST      0.041200
     33 H171       -3.4780    1.8240   -1.8720 hc        1 WST      0.049700
     34 H172       -2.6680    2.1320   -0.2880 hc        1 WST      0.049700
     35 H19        -3.9620    1.4260    1.7220 ha        1 WST      0.143000
     36 H20        -6.4260    1.6950    2.0350 ha        1 WST      0.143000
     37 HO22       -8.4800    0.8690    1.4260 ho        1 WST      0.420000
     38 H23        -7.1330   -1.6060   -0.6850 ha        1 WST      0.143000
     39 H24        -4.6610   -1.8730   -0.9860 ha        1 WST      0.143000
@<TRIPOS>BOND
     1    1    2 ar  
     2    1    7 ar  
     3    1   11 1   
     4    2    3 1   
     5    2    4 ar  
     6    3   22 1   
     7    4    5 ar  
     8    4   23 1   
     9    5    6 ar  
    10    5   24 1   
    11    6    7 ar  
    12    6   25 1   
    13    7    8 1   
    14    8    9 1   
    15    9   10 1   
    16    9   15 1   
    17    9   26 1   
    18   10   11 1   
    19   10   14 1   
    20   10   27 1   
    21   11   12 1   
    22   11   28 1   
    23   12   13 1   
    24   12   29 1   
    25   12   30 1   
    26   13   14 1   
    27   13   31 1   
    28   13   32 1   
    29   14   33 1   
    30   14   34 1   
    31   15   16 ar  
    32   15   21 ar  
    33   16   17 ar  
    34   16   35 1   
    35   17   18 ar  
    36   17   36 1   
    37   18   19 1   
    38   18   20 ar  
    39   19   37 1   
    40   20   21 ar  
    41   20   38 1   
    42   21   39 1   
@<TRIPOS>SUBSTRUCTURE
     1 WST         1 TEMP              0 ****  ****    0 ROOT
