@<TRIPOS>MOLECULE
molecule
   39    42     1     0     0
SMALL
bcc


@<TRIPOS>ATOM
      1 C1           0.0000     0.0000     0.0000 ca         1 WST      -0.168300
      2 C2           1.3920     0.0000     0.0000 ca         1 WST       0.150100
      3 O3           2.0680     0.0010    -1.1790 oh         1 WST      -0.508100
      4 C4           2.0910     0.0000     1.1970 ca         1 WST      -0.228000
      5 C5           1.4070    -0.0000     2.3970 ca         1 WST      -0.075000
      6 C6           0.0270    -0.0010     2.4020 ca         1 WST      -0.177000
      7 C7          -0.6790    -0.0070     1.2030 ca         1 WST       0.166100
      8 O8          -2.0370    -0.0130     1.2500 os         1 WST      -0.322900
      9 C9          -2.7220    -0.5040     0.0980 c3         1 WST       0.204400
     10 C11         -2.2230     0.2340    -1.1390 c3         1 WST      -0.101700
     11 C13         -0.7120     0.0000    -1.3270 c3         1 WST      -0.006400
     12 C15         -0.2310     1.2270    -2.1320 c3         1 WST      -0.071400
     13 C16         -1.2540     2.3480    -1.8790 c3         1 WST      -0.084400
     14 C17         -2.3270     1.7590    -0.9250 c3         1 WST      -0.079400
     15 C18         -4.2030    -0.2750     0.2580 ca         1 WST      -0.094300
     16 C19         -4.6620     0.9070     0.8090 ca         1 WST      -0.097000
     17 C20         -6.0190     1.1190     0.9560 ca         1 WST      -0.155500
     18 C21         -6.9210     0.1460     0.5490 ca         1 WST       0.109100
     19 O22         -8.2570     0.3530     0.6930 oh         1 WST      -0.523100
     20 C23         -6.4570    -1.0380    -0.0040 ca         1 WST      -0.155500
     21 C24         -5.0990    -1.2440    -0.1540 ca         1 WST      -0.097000
     22 HO3          2.7810    -0.6150    -1.1330 ho         1 WST       0.420000
     23 H4           3.1750     0.0000     1.1910 ha         1 WST       0.134000
     24 H5           1.9530    -0.0000     3.3330 ha         1 WST       0.136000
     25 H6          -0.5090    -0.0010     3.3430 ha         1 WST       0.145000
     26 H9          -2.5260    -1.5630    -0.0120 h1         1 WST       0.053700
     27 H11         -2.7730    -0.0710    -2.0210 hc         1 WST       0.072700
     28 H13         -0.5250    -0.9180    -1.8700 hc         1 WST       0.064700
     29 H151         0.7490     1.5350    -1.7860 hc         1 WST       0.055700
     30 H152        -0.1990     0.9870    -3.1880 hc         1 WST       0.055700
     31 H161        -0.7660     3.1950    -1.4100 hc         1 WST       0.042700
     32 H162        -1.7130     2.6480    -2.8130 hc         1 WST       0.042700
     33 H171        -3.3130     2.1130    -1.2010 hc         1 WST       0.054200
     34 H172        -2.0990     2.0130     0.1030 hc         1 WST       0.054200
     35 H19         -3.9580     1.6660     1.1270 ha         1 WST       0.141000
     36 H20         -6.3790     2.0450     1.3890 ha         1 WST       0.141500
     37 HO22        -8.5400     0.0140     1.5260 ho         1 WST       0.420000
     38 H23         -7.1590    -1.7990    -0.3250 ha         1 WST       0.141500
     39 H24         -4.7360    -2.1680    -0.5870 ha         1 WST       0.141000
@<TRIPOS>BOND
     1     1    11 1
     2     1     2 ar
     3     1     7 ar
     4     2     3 1
     5     2     4 ar
     6     3    22 1
     7     4     5 ar
     8     4    23 1
     9     5     6 ar
    10     5    24 1
    11     6     7 ar
    12     6    25 1
    13     7     8 1
    14     8     9 1
    15     9    10 1
    16     9    15 1
    17     9    26 1
    18    10    14 1
    19    10    11 1
    20    10    27 1
    21    11    12 1
    22    11    28 1
    23    12    13 1
    24    12    29 1
    25    12    30 1
    26    13    14 1
    27    13    31 1
    28    13    32 1
    29    14    33 1
    30    14    34 1
    31    15    21 ar
    32    15    16 ar
    33    16    17 ar
    34    16    35 1
    35    17    18 ar
    36    17    36 1
    37    18    19 1
    38    18    20 ar
    39    19    37 1
    40    20    21 ar
    41    20    38 1
    42    21    39 1
@<TRIPOS>SUBSTRUCTURE
     1 WST         1 TEMP              0 ****  ****    0 ROOT
