@<TRIPOS>MOLECULE
WT2
   26    25     1     0     0
SMALL
bcc


@<TRIPOS>ATOM
      1 CH           0.0000     0.0000     0.0000 c          1 WT2       0.550600
      2 CZ           1.4840     0.0000     0.0000 ce         1 WT2       0.340200
      3 NH           2.1330     0.0000     1.1250 n2         1 WT2      -0.691100
      4 NE           2.1740    -0.0010    -1.1950 nu         1 WT2      -0.481200
      5 CD           3.6380    -0.0010    -1.1950 c3         1 WT2       0.179800
      6 CG           4.1480    -0.0010    -2.6370 c3         1 WT2      -0.060400
      7 CB           5.6790    -0.0020    -2.6370 c3         1 WT2      -0.015400
      8 CA           6.1890    -0.0020    -4.0790 c3         1 WT2      -0.203500
      9 C            7.6900     0.1220    -4.0810 c          1 WT2       0.956600
     10 OA2          8.2650     1.3230    -3.9140 o          1 WT2      -0.815300
     11 OA1          8.3770    -0.8600    -4.2330 o          1 WT2      -0.815300
     12 N            5.8000    -1.2580    -4.7360 nz         1 WT2       0.080400
     13 OH          -0.6040     0.0010     1.0460 o          1 WT2      -0.527100
     14 HA           5.7570     0.8340    -4.6150 hx         1 WT2       0.086700
     15 HN1          5.8740    -2.0120    -4.0830 hn         1 WT2       0.211467
     16 HN2          6.4060    -1.4290    -5.5140 hn         1 WT2       0.211467
     17 HB1C         6.0390    -0.8860    -2.1260 hc         1 WT2       0.059200
     18 HB2C         6.0400     0.8830    -2.1270 hc         1 WT2       0.059200
     19 HG1C         3.7870    -0.8850    -3.1480 hc         1 WT2       0.004200
     20 HG2C         3.7870     0.8840    -3.1480 hc         1 WT2       0.004200
     21 HD1C         3.9990    -0.8860    -0.6840 h1         1 WT2       0.033700
     22 HD2C         3.9990     0.8830    -0.6840 h1         1 WT2       0.033700
     23 HH1N         1.6320     0.0000     1.9920 hn         1 WT2       0.346400
     24 HH          -0.5420    -0.0030    -0.9380 h4         1 WT2      -0.040800
     25 HNE          1.6730     0.0050    -2.0620 hn         1 WT2       0.283800
     26 HN3          4.8630    -1.1790    -5.0770 hn         1 WT2       0.211467
@<TRIPOS>BOND
     1     1     2 1   
     2     1    13 2   
     3     1    24 1   
     4     2     3 2   
     5     2     4 1   
     6     3    23 1   
     7     4     5 1   
     8     4    25 1   
     9     5     6 1   
    10     5    21 1   
    11     5    22 1   
    12     6     7 1   
    13     6    19 1   
    14     6    20 1   
    15     7     8 1   
    16     7    17 1   
    17     7    18 1   
    18     8     9 1   
    19     8    12 1   
    20     8    14 1   
    21     9    10 1   
    22     9    11 1   
    23    12    15 1   
    24    12    16 1   
    25    12    26 1   
@<TRIPOS>SUBSTRUCTURE
     1 WT2         1 TEMP              0 ****  ****    0 ROOT
