@<TRIPOS>MOLECULE
molecule
   26    25     1     0     0
SMALL
bcc


@<TRIPOS>ATOM
      1 CH           0.0000     0.0000     0.0000 c          1 WT2       0.491600
      2 CZ           1.4840     0.0000     0.0000 ce         1 WT2       0.553200
      3 NH           2.1330     0.0000     1.1250 n2         1 WT2      -0.809100
      4 NE           2.1740    -0.0010    -1.1950 nu         1 WT2      -0.938200
      5 CD           3.6380    -0.0010    -1.1950 c3         1 WT2       0.233800
      6 CG           4.1480    -0.0010    -2.6370 c3         1 WT2      -0.114400
      7 CB           5.6790    -0.0020    -2.6370 c3         1 WT2      -0.087400
      8 CA           6.1890    -0.0020    -4.0790 c3         1 WT2      -0.017500
      9 C            7.6900     0.1220    -4.0810 c          1 WT2       0.867600
     10 OA2          8.2650     1.3230    -3.9140 o          1 WT2      -0.771800
     11 OA1          8.3770    -0.8600    -4.2330 o          1 WT2      -0.771800
     12 N            5.8000    -1.2580    -4.7360 nz         1 WT2      -0.793600
     13 OH          -0.6040     0.0010     1.0460 o          1 WT2      -0.452100
     14 HA           5.7570     0.8340    -4.6150 hx         1 WT2       0.105700
     15 HN1          4.8550    -1.1870    -5.0580 hn         1 WT2       0.439800
     16 HN2          5.8740    -2.0120    -4.0830 hn         1 WT2       0.439800
     17 HB1C         6.0400     0.8830    -2.1270 hc         1 WT2       0.089700
     18 HB2C         6.0390    -0.8860    -2.1260 hc         1 WT2       0.089700
     19 HG1C         3.7870    -0.8850    -3.1480 hc         1 WT2       0.037200
     20 HG2C         3.7870     0.8840    -3.1480 hc         1 WT2       0.037200
     21 HD1C         3.9990    -0.8860    -0.6840 h1         1 WT2       0.051200
     22 HD2C         3.9990     0.8830    -0.6840 h1         1 WT2       0.051200
     23 HH1N         3.1340    -0.0000     1.1250 hn         1 WT2       0.400400
     24 HH          -0.5420    -0.0030    -0.9380 h4         1 WT2       0.001200
     25 HNE          1.6730     0.0050    -2.0620 hn         1 WT2       0.426800
     26 HN3          6.4190    -1.4400    -5.5000 hn         1 WT2       0.439800
@<TRIPOS>BOND
     1    11     9 1
     2     9    10 1
     3     9     8 1
     4     8    12 1
     5     8     7 1
     6     7     6 1
     7     6     5 1
     8     5     4 1
     9     4     2 1
    10     2     3 2
    11     2     1 1
    12     1    13 2
    13     8    14 1
    14    12    15 1
    15    12    16 1
    16     7    17 1
    17     7    18 1
    18     6    19 1
    19     6    20 1
    20     5    21 1
    21     5    22 1
    22     3    23 1
    23     1    24 1
    24     4    25 1
    25    26    12 1
@<TRIPOS>SUBSTRUCTURE
     1 WT2         1 TEMP              0 ****  ****    0 ROOT
