@<TRIPOS>MOLECULE
WT4
   51    44     1     0     0
SMALL
bcc


@<TRIPOS>ATOM
      1 C7         -0.9580   -1.1070    1.2830 c2        1 WT4      0.202000
      2 O1         -0.8570   -0.9500    0.0580 o         1 WT4     -0.380000
      3 O2          1.9560   -1.8360    3.1130 o         1 WT4     -0.472000
      4 C8         -2.2170   -0.8600    2.0330 c3        1 WT4     -0.291000
      5 C12         1.3590   -1.3150    4.0800 c2        1 WT4      0.357000
      6 C11         2.1100   -1.3910    5.4650 c2        1 WT4      0.049000
      7 C9         -2.0260    2.9500    4.8490 c2        1 WT4     -0.226000
      8 N2          3.2560   -1.9870    5.5930 n3        1 WT4     -0.166000
      9 N1         -0.7020   -1.3040   -2.7830 n3        1 WT4     -0.296000
     10 C4         -0.0390   -0.4740   -3.7010 c2        1 WT4     -0.048000
     11 C5          1.2840   -0.2160   -3.7280 c2        1 WT4     -0.257000
     12 C6          2.5060   -1.4500   -0.0190 c2        1 WT4     -0.269000
     13 S1          3.4460   -1.4520   -1.2150 s         1 WT4     -0.007000
     14 C3         -0.9300    0.0770   -4.7780 c2        1 WT4      0.337000
     15 O          -2.0310    0.6180   -4.5470 o         1 WT4     -0.396000
     16 C          -2.5020    0.2620   -7.5430 c2        1 WT4     -0.371000
     17 N          -0.5390   -0.1340   -6.1020 n         1 WT4     -0.393000
     18 C1         -1.0340    2.1550   -7.0240 c3        1 WT4     -0.241000
     19 C2         -1.0840    0.6270   -7.1970 c3        1 WT4      0.031000
     20 C13         2.6410   -1.2190   -8.5750 c1        1 WT4      0.435000
     21 H8         -1.9890   -0.2230    2.9280 hc        1 WT4      0.110333
     22 H8A        -2.9080    3.5800    5.0220 ha        1 WT4      0.113000
     23 H11        -1.0920    3.5060    4.6900 ha        1 WT4      0.113000
     24 H10        -3.0160    1.0720    4.9920 ha        1 WT4      0.113000
     25 H10A       -1.1970    0.9900    4.6610 ha        1 WT4      0.113000
     26 H9         -2.6240   -1.8360    2.3980 hc        1 WT4      0.110333
     27 H9A        -2.9900   -0.3580    1.4040 hc        1 WT4      0.110333
     28 HN2         1.6130   -0.9120    6.3350 h4        1 WT4      0.181000
     29 HN2A        3.6800   -2.4120    4.7810 hn        1 WT4      0.264000
     30 HN1        -1.5480   -0.8890   -2.4380 hn        1 WT4      0.199500
     31 H4         -0.1100   -1.5620   -2.0130 hn        1 WT4      0.199500
     32 H5          0.3350    0.9800   -0.6950 ha        1 WT4      0.000500
     33 H5A         1.9710   -0.5570   -2.9270 ha        1 WT4      0.148500
     34 H6          2.7700   -1.7520    1.0140 h4        1 WT4      0.142500
     35 H6A         0.5960    0.7570   -1.2790 ha        1 WT4      0.000500
     36 HS1         1.4420   -1.1400   -0.0530 h4        1 WT4      0.142500
     37 H          -3.0260   -1.1210   -5.8010 hs        1 WT4      0.029000
     38 HA         -0.4580    0.3670   -8.1170 h1        1 WT4      0.168000
     39 HB         -2.7970    0.7880   -8.4880 h4        1 WT4      0.219000
     40 HN          0.3830   -0.4930   -6.2550 hn        1 WT4      0.263000
     41 H1         -1.4480    2.6550   -7.9320 hc        1 WT4      0.116000
     42 H1A         0.0290    2.4750   -6.8960 hc        1 WT4      0.116000
     43 H2         -1.6140    2.4740   -6.1240 hc        1 WT4      0.116000
     44 S          -3.5810   -0.6160   -6.9000 sh        1 WT4      0.895000
     45 C10        -2.0800    1.6250    4.8330 c2        1 WT4     -0.226000
     46 O4          1.6030   -0.7900   -8.1620 o         1 WT4     -0.217000
     47 O5          3.6650   -1.6430   -8.9880 o         1 WT4     -0.217000
     48 H23         3.7590   -2.0570    6.4550 hn        1 WT4      0.264000
     49 H12        -0.0850   -1.4370    1.8970 h4        1 WT4      0.137000
     50 HN3         1.7560    0.3550   -4.5360 ha        1 WT4      0.148500
     51 O3          0.2570   -0.7410    4.1380 o         1 WT4     -0.472000
@<TRIPOS>BOND
     1    1    2 1   
     2    1    4 1   
     3    1   49 1   
     4    3    5 1   
     5    4   21 1   
     6    4   26 1   
     7    4   27 1   
     8    5    6 1   
     9    5   51 1   
    10    6    8 1   
    11    6   28 1   
    12    7   22 1   
    13    7   23 1   
    14    7   45 1   
    15    8   29 1   
    16    8   48 1   
    17    9   10 1   
    18    9   30 1   
    19    9   31 1   
    20   10   11 1   
    21   10   14 1   
    22   11   33 1   
    23   11   50 1   
    24   12   13 1   
    25   12   34 1   
    26   12   36 1   
    27   14   15 1   
    28   14   17 1   
    29   16   19 1   
    30   16   39 1   
    31   16   44 1   
    32   17   19 1   
    33   17   40 1   
    34   18   19 1   
    35   18   41 1   
    36   18   42 1   
    37   18   43 1   
    38   19   38 1   
    39   20   46 1   
    40   20   47 1   
    41   24   45 1   
    42   25   45 1   
    43   32   35 1   
    44   37   44 1   
@<TRIPOS>SUBSTRUCTURE
     1 WT4         1 TEMP              0 ****  ****    0 ROOT
