@<TRIPOS>MOLECULE
WTC
   40    43     1     0     0
SMALL
bcc


@<TRIPOS>ATOM
      1 C1           0.0000     0.0000     0.0000 cc         1 WTC      -0.450900
      2 C2           1.4040     0.0000     0.0000 cd         1 WTC       0.008100
      3 N3           1.7910     0.0000     1.3020 na         1 WTC       0.530400
      4 N4           0.6430    -0.0010     2.1030 nd         1 WTC      -0.647800
      5 C5          -0.4180    -0.0000     1.3430 cc         1 WTC       0.480200
      6 C6          -0.6890    -0.0040    -1.2910 c          1 WTC       0.655100
      7 N7           0.0750    -0.0020    -2.4070 ns         1 WTC      -0.007400
      8 C8           1.4290     0.0050    -2.3100 cc         1 WTC       0.302900
      9 N9           2.0580     0.0000    -1.1720 nd         1 WTC      -0.522100
     10 C10          3.1740     0.0000     1.7850 c3         1 WTC      -0.049000
     11 C11          3.4280    -1.2440     2.6550 c3         1 WTC      -0.033400
     12 C12          3.8180    -0.7290     4.0560 c3         1 WTC      -0.024400
     13 C13          3.2010     0.6900     4.1250 c3         1 WTC      -0.024400
     14 C14          3.4180     1.2270     2.6870 c3         1 WTC      -0.033400
     15 O15         -1.9060    -0.0120    -1.3580 o          1 WTC      -0.670500
     16 C16          2.2400     0.0070    -3.5810 c3         1 WTC       0.002600
     17 C17          3.7080     0.0150    -3.2380 ca         1 WTC      -0.076300
     18 C18          4.3740     1.2150    -3.0760 ca         1 WTC      -0.084500
     19 C19          5.7210     1.2220    -2.7630 ca         1 WTC      -0.100000
     20 C20          6.4010     0.0290    -2.6110 ca         1 WTC      -0.099000
     21 C21          5.7340    -1.1720    -2.7710 ca         1 WTC      -0.100000
     22 C22          4.3870    -1.1790    -3.0790 ca         1 WTC      -0.084500
     23 H5          -1.4450    -0.0010     1.6880 h4         1 WTC       0.013100
     24 HN7         -0.3590     0.0020    -3.3090 hn         1 WTC       0.182500
     25 H10          3.8630     0.0130     0.9500 h1         1 WTC       0.060700
     26 H11          4.2380    -1.8280     2.2370 hc         1 WTC       0.026200
     27 H11A         2.5260    -1.8410     2.7190 hc         1 WTC       0.026200
     28 H12          4.8960    -0.6770     4.1520 hc         1 WTC       0.021950
     29 H12A         3.3930    -1.3640     4.8240 hc         1 WTC       0.021950
     30 H13          3.7290     1.3020     4.8460 hc         1 WTC       0.021950
     31 H13A         2.1440     0.6360     4.3570 hc         1 WTC       0.021950
     32 H14          2.7030     2.0090     2.4640 hc         1 WTC       0.026200
     33 H14A         4.4330     1.5870     2.5680 hc         1 WTC       0.026200
     34 H16          2.0000     0.8900    -4.1610 hc         1 WTC       0.031200
     35 H16A         2.0090    -0.8790    -4.1590 hc         1 WTC       0.031200
     36 H18          3.8420     2.1510    -3.1950 ha         1 WTC       0.103000
     37 H19          6.2430     2.1630    -2.6370 ha         1 WTC       0.103000
     38 H20          7.4560     0.0340    -2.3670 ha         1 WTC       0.102000
     39 H21          6.2670    -2.1080    -2.6490 ha         1 WTC       0.103000
     40 H22          3.8650    -2.1200    -3.2050 ha         1 WTC       0.103000
@<TRIPOS>BOND
     1     1     2 2   
     2     1     5 1   
     3     1     6 1   
     4     2     3 1   
     5     2     9 1   
     6     3     4 1   
     7     3    10 1   
     8     4     5 2   
     9     5    23 1   
    10     6     7 1   
    11     6    15 2   
    12     7     8 1   
    13     7    24 1   
    14     8     9 2   
    15     8    16 1   
    16    10    11 1   
    17    10    14 1   
    18    10    25 1   
    19    11    12 1   
    20    11    26 1   
    21    11    27 1   
    22    12    13 1   
    23    12    28 1   
    24    12    29 1   
    25    13    14 1   
    26    13    30 1   
    27    13    31 1   
    28    14    32 1   
    29    14    33 1   
    30    16    17 1   
    31    16    34 1   
    32    16    35 1   
    33    17    18 ar  
    34    17    22 ar  
    35    18    19 ar  
    36    18    36 1   
    37    19    20 ar  
    38    19    37 1   
    39    20    21 ar  
    40    20    38 1   
    41    21    22 ar  
    42    21    39 1   
    43    22    40 1   
@<TRIPOS>SUBSTRUCTURE
     1 WTC         1 TEMP              0 ****  ****    0 ROOT
