@<TRIPOS>MOLECULE
molecule
   40    43     1     0     0
SMALL
bcc


@<TRIPOS>ATOM
      1 C1           0.0000     0.0000     0.0000 cc         1 WTC      -0.426900
      2 C2           1.4040     0.0000     0.0000 cd         1 WTC       0.217100
      3 N3           1.7910     0.0000     1.3020 na         1 WTC       0.095400
      4 N4           0.6430    -0.0010     2.1030 nd         1 WTC      -0.501800
      5 C5          -0.4180    -0.0000     1.3430 cc         1 WTC       0.403200
      6 C6          -0.6890    -0.0040    -1.2910 c          1 WTC       0.734100
      7 N7           0.0750    -0.0020    -2.4070 ns         1 WTC      -0.470400
      8 C8           1.4290     0.0050    -2.3100 cc         1 WTC       0.522900
      9 N9           2.0580     0.0000    -1.1720 nd         1 WTC      -0.653100
     10 C10          3.1740     0.0000     1.7850 c3         1 WTC       0.077000
     11 C11          3.4280    -1.2440     2.6550 c3         1 WTC      -0.093400
     12 C12          3.8180    -0.7290     4.0560 c3         1 WTC      -0.083400
     13 C13          3.2010     0.6900     4.1250 c3         1 WTC      -0.083400
     14 C14          3.4180     1.2270     2.6870 c3         1 WTC      -0.093400
     15 O15         -1.9060    -0.0120    -1.3580 o          1 WTC      -0.631500
     16 C16          2.2400     0.0070    -3.5810 c3         1 WTC      -0.068400
     17 C17          3.7080     0.0150    -3.2380 ca         1 WTC      -0.068300
     18 C18          4.3740     1.2150    -3.0760 ca         1 WTC      -0.108500
     19 C19          5.7210     1.2220    -2.7630 ca         1 WTC      -0.127000
     20 C20          6.4010     0.0290    -2.6110 ca         1 WTC      -0.124000
     21 C21          5.7340    -1.1720    -2.7710 ca         1 WTC      -0.127000
     22 C22          4.3870    -1.1790    -3.0790 ca         1 WTC      -0.108500
     23 H5          -1.4450    -0.0010     1.6880 h4         1 WTC       0.062100
     24 HN7         -0.3590     0.0020    -3.3090 hn         1 WTC       0.338500
     25 H10          3.8630     0.0130     0.9500 h1         1 WTC       0.089700
     26 H11          4.2380    -1.8280     2.2370 hc         1 WTC       0.058200
     27 H11A         2.5260    -1.8410     2.7190 hc         1 WTC       0.058200
     28 H12          4.8960    -0.6770     4.1520 hc         1 WTC       0.050700
     29 H12A         3.3930    -1.3640     4.8240 hc         1 WTC       0.050700
     30 H13          3.7290     1.3020     4.8460 hc         1 WTC       0.050700
     31 H13A         2.1440     0.6360     4.3570 hc         1 WTC       0.050700
     32 H14          2.7030     2.0090     2.4640 hc         1 WTC       0.058200
     33 H14A         4.4330     1.5870     2.5680 hc         1 WTC       0.058200
     34 H16          2.0000     0.8900    -4.1610 hc         1 WTC       0.071700
     35 H16A         2.0090    -0.8790    -4.1590 hc         1 WTC       0.071700
     36 H18          3.8420     2.1510    -3.1950 ha         1 WTC       0.129000
     37 H19          6.2430     2.1630    -2.6370 ha         1 WTC       0.131000
     38 H20          7.4560     0.0340    -2.3670 ha         1 WTC       0.130000
     39 H21          6.2670    -2.1080    -2.6490 ha         1 WTC       0.131000
     40 H22          3.8650    -2.1200    -3.2050 ha         1 WTC       0.129000
@<TRIPOS>BOND
     1     2     1 2
     2     1     5 1
     3     1     6 1
     4     9     2 1
     5     3     2 1
     6    10     3 1
     7     3     4 1
     8     4     5 2
     9     5    23 1
    10     7     6 1
    11     6    15 2
    12     8     7 1
    13     7    24 1
    14    16     8 1
    15     9     8 2
    16    11    10 1
    17    14    10 1
    18    10    25 1
    19    12    11 1
    20    11    26 1
    21    11    27 1
    22    12    13 1
    23    12    28 1
    24    12    29 1
    25    13    14 1
    26    13    30 1
    27    13    31 1
    28    14    32 1
    29    14    33 1
    30    17    16 1
    31    16    34 1
    32    16    35 1
    33    18    17 ar
    34    17    22 ar
    35    19    18 ar
    36    18    36 1
    37    19    20 ar
    38    19    37 1
    39    20    21 ar
    40    20    38 1
    41    21    22 ar
    42    21    39 1
    43    22    40 1
@<TRIPOS>SUBSTRUCTURE
     1 WTC         1 TEMP              0 ****  ****    0 ROOT
