@<TRIPOS>MOLECULE
WTF
   52    55     1     0     0
SMALL
bcc


@<TRIPOS>ATOM
      1 C01          0.0000     0.0000     0.0000 c3         1 WTF       0.039900
      2 C02          1.5300     0.0000     0.0000 c3         1 WTF      -0.015600
      3 S03          2.1340     0.0000     1.7110 sy         1 WTF       0.861300
      4 O04          1.8370     1.2360     2.3450 o          1 WTF      -0.563800
      5 O05          1.8390    -1.2380     2.3440 o          1 WTF      -0.563800
      6 C06          3.8900     0.0010     1.5570 ca         1 WTF      -0.111500
      7 C07          4.5430    -1.0930     0.9870 ca         1 WTF      -0.047600
      8 C08          5.9330    -1.0840     0.8690 ca         1 WTF      -0.117000
      9 C09          6.6530     0.0040     1.3150 ca         1 WTF      -0.057000
     10 C10          6.0000     1.0860     1.8790 ca         1 WTF      -0.116000
     11 C11          4.6210     1.0850     1.9950 ca         1 WTF       0.001000
     12 C12          3.7640    -2.2570     0.5120 c          1 WTF       0.559700
     13 O13          3.0700    -2.8820     1.2880 o          1 WTF      -0.550100
     14 N14          3.8240    -2.6240    -0.7840 n          1 WTF      -0.174800
     15 C15          2.9780    -3.7100    -1.3010 c3         1 WTF       0.050000
     16 C16          2.2430    -3.2040    -2.5470 c3         1 WTF       0.119800
     17 N17          3.2210    -2.6680    -3.5040 nh         1 WTF      -0.366600
     18 C18          3.9300    -1.5080    -2.9480 c3         1 WTF       0.103800
     19 C19          4.7340    -1.9440    -1.7200 c3         1 WTF       0.011700
     20 C20          5.8480    -2.9040    -2.1420 c3         1 WTF      -0.021100
     21 C21          2.6160    -2.3500    -4.7040 cc         1 WTF       0.467100
     22 N22          1.9290    -3.1720    -5.4210 nd         1 WTF      -0.475100
     23 C23          1.3980    -2.7120    -6.5730 ca         1 WTF       0.080400
     24 C24          1.6920    -1.3650    -6.8060 ca         1 WTF      -0.002100
     25 S25          2.6660    -0.7670    -5.4640 ss         1 WTF      -0.238100
     26 C26          1.2210    -0.7290    -7.9520 ca         1 WTF      -0.079000
     27 C27          0.4650    -1.4250    -8.8700 ca         1 WTF       0.110900
     28 F28          0.0090    -0.8050    -9.9810 f          1 WTF      -0.122900
     29 C29          0.1710    -2.7650    -8.6530 ca         1 WTF      -0.123000
     30 C30          0.6170    -3.4020    -7.5230 ca         1 WTF      -0.025000
     31 H012        -0.3610     0.8210     0.6080 hc         1 WTF       0.014033
     32 H011        -0.3610    -0.9370     0.4070 hc         1 WTF       0.014033
     33 H013        -0.3610     0.1160    -1.0150 hc         1 WTF       0.014033
     34 H022         1.8910    -0.8850    -0.5110 h1         1 WTF       0.062200
     35 H021         1.8910     0.8850    -0.5100 h1         1 WTF       0.062200
     36 H081         6.4460    -1.9300     0.4280 ha         1 WTF       0.118000
     37 H091         7.7330     0.0110     1.2260 ha         1 WTF       0.106000
     38 H101         6.5700     1.9400     2.2270 ha         1 WTF       0.110000
     39 H111         4.1160     1.9350     2.4370 ha         1 WTF       0.137000
     40 H151         2.2560    -3.9990    -0.5460 h1         1 WTF       0.047700
     41 H152         3.5970    -4.5590    -1.5640 h1         1 WTF       0.047700
     42 H162         1.7030    -4.0230    -3.0040 h1         1 WTF       0.035200
     43 H161         1.5510    -2.4200    -2.2630 h1         1 WTF       0.035200
     44 H182         3.2110    -0.7510    -2.6580 h1         1 WTF       0.036700
     45 H181         4.6040    -1.1060    -3.6950 h1         1 WTF       0.036700
     46 H191         5.1610    -1.0720    -1.2390 h1         1 WTF       0.058700
     47 H203         6.1290    -3.5240    -1.2990 hc         1 WTF       0.019367
     48 H201         5.4950    -3.5330    -2.9510 hc         1 WTF       0.019367
     49 H202         6.7080    -2.3360    -2.4750 hc         1 WTF       0.019367
     50 H261         1.4510     0.3160    -8.1230 ha         1 WTF       0.127000
     51 H291        -0.4230    -3.3090    -9.3770 ha         1 WTF       0.124000
     52 H301         0.3810    -4.4480    -7.3660 ha         1 WTF       0.119000
@<TRIPOS>BOND
     1     1     2 1   
     2     1    31 1   
     3     1    32 1   
     4     1    33 1   
     5     2     3 1   
     6     2    34 1   
     7     2    35 1   
     8     3     4 2   
     9     3     5 2   
    10     3     6 1   
    11     6     7 ar  
    12     6    11 ar  
    13     7     8 ar  
    14     7    12 1   
    15     8     9 ar  
    16     8    36 1   
    17     9    10 ar  
    18     9    37 1   
    19    10    11 ar  
    20    10    38 1   
    21    11    39 1   
    22    12    13 2   
    23    12    14 1   
    24    14    15 1   
    25    14    19 1   
    26    15    16 1   
    27    15    40 1   
    28    15    41 1   
    29    16    17 1   
    30    16    42 1   
    31    16    43 1   
    32    17    18 1   
    33    17    21 1   
    34    18    19 1   
    35    18    44 1   
    36    18    45 1   
    37    19    20 1   
    38    19    46 1   
    39    20    47 1   
    40    20    48 1   
    41    20    49 1   
    42    21    22 2   
    43    21    25 1   
    44    22    23 1   
    45    23    24 ar  
    46    23    30 ar  
    47    24    25 1   
    48    24    26 ar  
    49    26    27 ar  
    50    26    50 1   
    51    27    28 1   
    52    27    29 ar  
    53    29    30 ar  
    54    29    51 1   
    55    30    52 1   
@<TRIPOS>SUBSTRUCTURE
     1 WTF         1 TEMP              0 ****  ****    0 ROOT
