@<TRIPOS>MOLECULE
molecule
   41    44     1     0     0
SMALL
bcc


@<TRIPOS>ATOM
      1 N01          0.0000     0.0000     0.0000 nz         1 WTI      -0.678400
      2 C02          1.3480     0.0000     0.0000 c          1 WTI       0.507700
      3 O03          1.9560     0.0000     1.0520 o          1 WTI      -0.427100
      4 C04          2.0860     0.0010    -1.2790 ca         1 WTI      -0.235600
      5 C05          3.4840     0.0010    -1.2810 ca         1 WTI      -0.064500
      6 C06          4.1710     0.0020    -2.4730 ca         1 WTI      -0.123500
      7 C07          3.4720     0.0020    -3.6810 cp         1 WTI       0.080000
      8 C08          4.2120     0.0030    -4.9640 cp         1 WTI      -0.276300
      9 C09          3.8980    -0.9170    -5.9630 ca         1 WTI      -0.043000
     10 C10          4.6270    -0.8730    -7.1570 ca         1 WTI      -0.153300
     11 C11          4.3330    -1.8260    -8.2470 cc         1 WTI      -0.015100
     12 S12          3.0950    -3.0700    -8.1920 ss         1 WTI      -0.124800
     13 C13          3.5090    -3.6040    -9.8130 cc         1 WTI      -0.078100
     14 C14          4.5100    -2.8630   -10.3060 cd         1 WTI       0.059100
     15 O15          5.0600    -3.0370   -11.5620 os         1 WTI      -0.299900
     16 C16          5.8400    -1.9270   -12.0270 c3         1 WTI       0.093400
     17 C17          6.7850    -1.4740   -10.9100 c3         1 WTI       0.096400
     18 O18          6.0100    -1.0230    -9.7900 os         1 WTI      -0.319900
     19 C19          4.9740    -1.8640    -9.4360 cd         1 WTI       0.069100
     20 C20          5.6360     0.0790    -7.3030 ca         1 WTI       0.506200
     21 N21          5.9060     0.9340    -6.3370 nb         1 WTI      -0.730000
     22 C22          5.2380     0.9330    -5.1950 ca         1 WTI       0.722200
     23 N23          5.5580     1.8590    -4.2110 nv         1 WTI      -1.028500
     24 C24          2.0760     0.0020    -3.6810 ca         1 WTI      -0.123500
     25 C25          1.3880    -0.0050    -2.4900 ca         1 WTI      -0.064500
     26 H011        -0.3340     0.0030     0.9440 hn         1 WTI       0.476467
     27 H012        -0.3340    -0.8190    -0.4690 hn         1 WTI       0.476467
     28 H05          4.0270     0.0010    -0.3430 ha         1 WTI       0.138000
     29 H25          0.3050    -0.0050    -2.4900 ha         1 WTI       0.138000
     30 H06          5.2540     0.0020    -2.4740 ha         1 WTI       0.172500
     31 H24          1.5350    -0.0000    -4.6190 ha         1 WTI       0.172500
     32 H09          3.2910    -1.7830    -5.7300 ha         1 WTI       0.144000
     33 H20          6.2050     0.1180    -8.2240 h4         1 WTI       0.068100
     34 H13          3.0230    -4.4170   -10.3390 h4         1 WTI       0.193000
     35 H161         5.1820    -1.1110   -12.2960 h1         1 WTI       0.075200
     36 H162         6.4210    -2.2310   -12.8890 h1         1 WTI       0.075200
     37 H171         7.3660    -0.6360   -11.2780 h1         1 WTI       0.078700
     38 H172         7.3710    -2.3280   -10.5940 h1         1 WTI       0.078700
     39 H231         6.5070     2.1540    -4.0910 hn         1 WTI       0.444800
     40 H232         4.8400     2.2330    -3.6230 hn         1 WTI       0.444800
     41 H013        -0.3340     0.8250    -0.4580 hn         1 WTI       0.476467
@<TRIPOS>BOND
     1     1     2 1
     2     2     3 2
     3     2     4 1
     4     4     5 ar
     5     4    25 ar
     6     5     6 ar
     7     6     7 ar
     8     7     8 1
     9     7    24 ar
    10     8     9 ar
    11     8    22 ar
    12     9    10 ar
    13    10    11 1
    14    10    20 ar
    15    11    12 1
    16    11    19 2
    17    12    13 1
    18    13    14 2
    19    14    15 1
    20    14    19 1
    21    15    16 1
    22    16    17 1
    23    17    18 1
    24    18    19 1
    25    20    21 ar
    26    21    22 ar
    27    22    23 1
    28    24    25 ar
    29     1    26 1
    30     1    27 1
    31     5    28 1
    32    25    29 1
    33     6    30 1
    34    24    31 1
    35     9    32 1
    36    20    33 1
    37    13    34 1
    38    16    35 1
    39    16    36 1
    40    17    37 1
    41    17    38 1
    42    23    39 1
    43    23    40 1
    44    41     1 1
@<TRIPOS>SUBSTRUCTURE
     1 WTI         1 TEMP              0 ****  ****    0 ROOT
