@<TRIPOS>MOLECULE
WTI
   41    44     1     0     0
SMALL
bcc


@<TRIPOS>ATOM
      1 N01          0.0000     0.0000     0.0000 nz         1 WTI       0.199600
      2 C02          1.3480     0.0000     0.0000 c          1 WTI       0.358700
      3 O03          1.9560     0.0000     1.0520 o          1 WTI      -0.439100
      4 C04          2.0860     0.0010    -1.2790 ca         1 WTI      -0.263600
      5 C05          3.4840     0.0010    -1.2810 ca         1 WTI      -0.023000
      6 C06          4.1710     0.0020    -2.4730 ca         1 WTI      -0.101500
      7 C07          3.4720     0.0020    -3.6810 cp         1 WTI       0.105000
      8 C08          4.2120     0.0030    -4.9640 cp         1 WTI      -0.285300
      9 C09          3.8980    -0.9170    -5.9630 ca         1 WTI      -0.012000
     10 C10          4.6270    -0.8730    -7.1570 ca         1 WTI      -0.141300
     11 C11          4.3330    -1.8260    -8.2470 cc         1 WTI       0.028900
     12 S12          3.0950    -3.0700    -8.1920 ss         1 WTI      -0.255800
     13 C13          3.5090    -3.6040    -9.8130 cc         1 WTI      -0.007100
     14 C14          4.5100    -2.8630   -10.3060 cd         1 WTI       0.069100
     15 O15          5.0600    -3.0370   -11.5620 os         1 WTI      -0.278900
     16 C16          5.8400    -1.9270   -12.0270 c3         1 WTI       0.165400
     17 C17          6.7850    -1.4740   -10.9100 c3         1 WTI       0.168400
     18 O18          6.0100    -1.0230    -9.7900 os         1 WTI      -0.292900
     19 C19          4.9740    -1.8640    -9.4360 cd         1 WTI       0.081100
     20 C20          5.6360     0.0790    -7.3030 ca         1 WTI       0.474200
     21 N21          5.9060     0.9340    -6.3370 nb         1 WTI      -0.618000
     22 C22          5.2380     0.9330    -5.1950 ca         1 WTI       0.530200
     23 N23          5.5580     1.8590    -4.2110 nv         1 WTI      -0.559500
     24 C24          2.0760     0.0020    -3.6810 ca         1 WTI      -0.101500
     25 C25          1.3880    -0.0050    -2.4900 ca         1 WTI      -0.023000
     26 H011        -0.3340     0.0030     0.9440 hn         1 WTI       0.245800
     27 H012        -0.3340    -0.8190    -0.4690 hn         1 WTI       0.245800
     28 H05          4.0270     0.0010    -0.3430 ha         1 WTI       0.105500
     29 H25          0.3050    -0.0050    -2.4900 ha         1 WTI       0.105500
     30 H06          5.2540     0.0020    -2.4740 ha         1 WTI       0.139500
     31 H24          1.5350    -0.0000    -4.6190 ha         1 WTI       0.139500
     32 H09          3.2910    -1.7830    -5.7300 ha         1 WTI       0.121000
     33 H20          6.2050     0.1180    -8.2240 h4         1 WTI       0.018100
     34 H13          3.0230    -4.4170   -10.3390 h4         1 WTI       0.167000
     35 H161         5.1820    -1.1110   -12.2960 h1         1 WTI       0.031700
     36 H162         6.4210    -2.2310   -12.8890 h1         1 WTI       0.031700
     37 H171         7.3660    -0.6360   -11.2780 h1         1 WTI       0.035200
     38 H172         7.3710    -2.3280   -10.5940 h1         1 WTI       0.035200
     39 H231         6.5070     2.1540    -4.0910 hn         1 WTI       0.277800
     40 H232         4.8400     2.2330    -3.6230 hn         1 WTI       0.277800
     41 H013        -0.3340     0.8250    -0.4580 hn         1 WTI       0.245800
@<TRIPOS>BOND
     1     1     2 1   
     2     1    26 1   
     3     1    27 1   
     4     1    41 1   
     5     2     3 2   
     6     2     4 1   
     7     4     5 ar  
     8     4    25 ar  
     9     5     6 ar  
    10     5    28 1   
    11     6     7 ar  
    12     6    30 1   
    13     7     8 1   
    14     7    24 ar  
    15     8     9 ar  
    16     8    22 ar  
    17     9    10 ar  
    18     9    32 1   
    19    10    11 1   
    20    10    20 ar  
    21    11    12 1   
    22    11    19 2   
    23    12    13 1   
    24    13    14 2   
    25    13    34 1   
    26    14    15 1   
    27    14    19 1   
    28    15    16 1   
    29    16    17 1   
    30    16    35 1   
    31    16    36 1   
    32    17    18 1   
    33    17    37 1   
    34    17    38 1   
    35    18    19 1   
    36    20    21 ar  
    37    20    33 1   
    38    21    22 ar  
    39    22    23 1   
    40    23    39 1   
    41    23    40 1   
    42    24    25 ar  
    43    24    31 1   
    44    25    29 1   
@<TRIPOS>SUBSTRUCTURE
     1 WTI         1 TEMP              0 ****  ****    0 ROOT
