@<TRIPOS>MOLECULE
WTJ
   44    46     1     0     0
SMALL
bcc


@<TRIPOS>ATOM
      1 C01          0.0000     0.0000     0.0000 c3         1 WTJ       0.181100
      2 N02          1.4690     0.0000     0.0000 n3         1 WTJ      -0.537600
      3 C03          1.9960     0.0000     1.3710 c3         1 WTJ       0.181100
      4 C04          1.9950    -1.1380    -0.7660 c3         1 WTJ       0.139800
      5 C05          3.5040    -0.9700    -0.9560 c3         1 WTJ       0.040000
      6 N06          4.0290    -2.1040    -1.7200 ns         1 WTJ      -0.192900
      7 C07          5.3430    -2.1710    -2.0090 c          1 WTJ       0.621700
      8 O08          6.0940    -1.2890    -1.6370 o          1 WTJ      -0.676100
      9 C09          5.8720    -3.3120    -2.7790 ca         1 WTJ      -0.357900
     10 C10          5.0460    -4.3910    -3.1070 ca         1 WTJ      -0.003000
     11 C11          5.5960    -5.4470    -3.8380 ca         1 WTJ      -0.196300
     12 C12          4.7660    -6.6110    -4.2100 cc         1 WTJ       0.075900
     13 S13          3.0680    -6.8080    -3.8060 ss         1 WTJ      -0.257800
     14 C14          3.0190    -8.3620    -4.6240 cc         1 WTJ      -0.030100
     15 C15          4.2180    -8.6540    -5.1420 cd         1 WTJ       0.073100
     16 O16          4.4990    -9.8090    -5.8480 os         1 WTJ      -0.286900
     17 C17          5.7060    -9.7540    -6.6200 c3         1 WTJ       0.165400
     18 C18          6.8310    -9.1750    -5.7560 c3         1 WTJ       0.166400
     19 O19          6.4930    -7.8340    -5.3770 os         1 WTJ      -0.286900
     20 C20          5.2000    -7.6770    -4.9180 cd         1 WTJ       0.047100
     21 C21          6.9410    -5.3890    -4.2110 ca         1 WTJ       0.485200
     22 N22          7.6920    -4.3570    -3.8850 nb         1 WTJ      -0.662000
     23 C23          7.2140    -3.3310    -3.2000 ca         1 WTJ       0.563200
     24 N24          8.0440    -2.2690    -2.8880 nv         1 WTJ      -0.518500
     25 H011        -0.3610     0.8460     0.5730 h1         1 WTJ       0.003033
     26 H012        -0.3610    -0.9190     0.4460 h1         1 WTJ       0.003033
     27 H013        -0.3610     0.0730    -1.0190 h1         1 WTJ       0.003033
     28 H031         2.0170    -1.0150     1.7500 h1         1 WTJ       0.003033
     29 H032         3.0000     0.4070     1.3730 h1         1 WTJ       0.003033
     30 H033         1.3590     0.6080     2.0030 h1         1 WTJ       0.003033
     31 H041         1.5110    -1.1760    -1.7350 h1         1 WTJ       0.010700
     32 H042         1.7990    -2.0570    -0.2280 h1         1 WTJ       0.010700
     33 H051         3.9880    -0.9320     0.0130 h1         1 WTJ       0.035700
     34 H052         3.7000    -0.0500    -1.4940 h1         1 WTJ       0.035700
     35 H06          3.4080    -2.8170    -2.0480 hn         1 WTJ       0.179500
     36 H10          4.0950    -4.5170    -2.6040 ha         1 WTJ       0.113000
     37 H21          7.3730    -6.2060    -4.7760 h4         1 WTJ       0.005100
     38 H14          2.1420    -8.9930    -4.6990 h4         1 WTJ       0.161000
     39 H171         5.5530    -9.1190    -7.4840 h1         1 WTJ       0.026700
     40 H172         5.9750   -10.7530    -6.9410 h1         1 WTJ       0.026700
     41 H181         6.9060    -9.7720    -4.8550 h1         1 WTJ       0.030700
     42 H182         7.7330    -9.1410    -6.3540 h1         1 WTJ       0.030700
     43 H241         9.0260    -2.4200    -2.7660 hn         1 WTJ       0.290800
     44 H242         7.6700    -1.3420    -2.8330 hn         1 WTJ       0.290800
@<TRIPOS>BOND
     1     1     2 1   
     2     1    25 1   
     3     1    26 1   
     4     1    27 1   
     5     2     3 1   
     6     2     4 1   
     7     3    28 1   
     8     3    29 1   
     9     3    30 1   
    10     4     5 1   
    11     4    31 1   
    12     4    32 1   
    13     5     6 1   
    14     5    33 1   
    15     5    34 1   
    16     6     7 1   
    17     6    35 1   
    18     7     8 2   
    19     7     9 1   
    20     9    10 ar  
    21     9    23 ar  
    22    10    11 ar  
    23    10    36 1   
    24    11    12 1   
    25    11    21 ar  
    26    12    13 1   
    27    12    20 2   
    28    13    14 1   
    29    14    15 2   
    30    14    38 1   
    31    15    16 1   
    32    15    20 1   
    33    16    17 1   
    34    17    18 1   
    35    17    39 1   
    36    17    40 1   
    37    18    19 1   
    38    18    41 1   
    39    18    42 1   
    40    19    20 1   
    41    21    22 ar  
    42    21    37 1   
    43    22    23 ar  
    44    23    24 1   
    45    24    43 1   
    46    24    44 1   
@<TRIPOS>SUBSTRUCTURE
     1 WTJ         1 TEMP              0 ****  ****    0 ROOT
