@<TRIPOS>MOLECULE
WTZ
   18    17     1     0     0
SMALL
bcc


@<TRIPOS>ATOM
      1 CA1         1.5030    0.0450    0.0730 c         1 WTZ      0.896600
      2 OA1         2.1470   -0.6740    0.8870 o         1 WTZ     -0.831300
      3 CA2        -0.0470   -0.1220   -0.0000 c3        1 WTZ     -0.008200
      4 OA2         2.0190    0.9040   -0.6950 o         1 WTZ     -0.831300
      5 C3         -0.6500    0.0650    1.4100 c3        1 WTZ      0.163100
      6 OA3        -0.6250    0.8710   -0.8420 oh        1 WTZ     -0.640800
      7 CA5        -2.1680    0.1210    1.3910 c3        1 WTZ     -0.085100
      8 OA4        -0.2890   -0.9890    2.2900 oh        1 WTZ     -0.651800
      9 CA3        -0.3760   -1.4890   -0.5760 c3        1 WTZ     -0.077100
     10 HA4         0.6570   -1.1650    2.1490 ho        1 WTZ      0.447000
     11 H3         -0.2460    1.0340    1.8250 h1        1 WTZ      0.023700
     12 HA51       -2.5540    0.3980    2.4010 hc        1 WTZ      0.028033
     13 HA52       -2.4970    0.8810    0.6430 hc        1 WTZ      0.028033
     14 HA53       -2.5880   -0.8740    1.1130 hc        1 WTZ      0.028033
     15 HA31       -1.4780   -1.6060   -0.7070 hc        1 WTZ      0.027367
     16 HA32        0.0030   -2.2770    0.1180 hc        1 WTZ      0.027367
     17 HA33        0.1160   -1.6060   -1.5710 hc        1 WTZ      0.027367
     18 HA3         0.1090    1.3770   -1.2280 ho        1 WTZ      0.427000
@<TRIPOS>BOND
     1    1    2 1   
     2    1    3 1   
     3    1    4 1   
     4    3    5 1   
     5    3    6 1   
     6    3    9 1   
     7    5    7 1   
     8    5    8 1   
     9    5   11 1   
    10    6   18 1   
    11    7   12 1   
    12    7   13 1   
    13    7   14 1   
    14    8   10 1   
    15    9   15 1   
    16    9   16 1   
    17    9   17 1   
@<TRIPOS>SUBSTRUCTURE
     1 WTZ         1 TEMP              0 ****  ****    0 ROOT
