@<TRIPOS>MOLECULE
molecule
   18    17     1     0     0
SMALL
bcc


@<TRIPOS>ATOM
      1 CA1          1.5070     0.0000     0.0000 c          1 WTZ       0.867600
      2 OA1          2.1110    -0.4370     0.9510 o          1 WTZ      -0.832300
      3 CA2          0.0000     0.0000     0.0000 c3         1 WTZ       0.052800
      4 OA2          2.1770     0.4910    -1.0540 o          1 WTZ      -0.832300
      5 C3          -0.5110     0.0000     1.4420 c3         1 WTZ       0.147100
      6 OA3         -0.4770     1.1660    -0.6750 oh         1 WTZ      -0.628800
      7 CA5         -2.0350    -0.1260     1.4430 c3         1 WTZ      -0.125100
      8 OA4          0.0590    -1.1030     2.1490 oh         1 WTZ      -0.569800
      9 CA3         -0.5100    -1.2500    -0.7210 c3         1 WTZ      -0.066100
     10 HA4          0.0550    -0.9190     3.0740 ho         1 WTZ       0.374000
     11 H3          -0.2250     0.9260     1.9260 h1         1 WTZ       0.022700
     12 HA51        -2.4260     0.2250     2.3910 hc         1 WTZ       0.027367
     13 HA52        -2.3120    -1.1640     1.3010 hc         1 WTZ       0.027367
     14 HA53        -2.4480     0.4710     0.6390 hc         1 WTZ       0.027367
     15 HA31        -1.5440    -1.1050    -1.0080 hc         1 WTZ       0.031033
     16 HA32         0.0890    -1.4260    -1.6060 hc         1 WTZ       0.031033
     17 HA33        -0.4360    -2.1040    -0.0580 hc         1 WTZ       0.031033
     18 HA3          0.1920     1.8300    -0.6680 ho         1 WTZ       0.415000
@<TRIPOS>BOND
     1     8     5 1
     2     7     5 1
     3     9     3 1
     4     3     6 1
     5     3     1 1
     6     3     5 1
     7     1     4 1
     8     1     2 1
     9     8    10 1
    10     5    11 1
    11     7    12 1
    12     7    13 1
    13     7    14 1
    14     9    15 1
    15     9    16 1
    16     9    17 1
    17     6    18 1
@<TRIPOS>SUBSTRUCTURE
     1 WTZ         1 TEMP              0 ****  ****    0 ROOT
