@<TRIPOS>MOLECULE
molecule
   28    30     1     0     0
SMALL
bcc


@<TRIPOS>ATOM
      1 O01          0.0000     0.0000     0.0000 o          1 WUB      -0.842300
      2 C02          1.3420     0.0000     0.0000 c          1 WUB       0.896600
      3 O03          1.9460     0.0000     1.0460 o          1 WUB      -0.842300
      4 C04          2.0960    -0.0020    -1.3050 c3         1 WUB      -0.165700
      5 C05          3.3650    -0.8420    -1.1620 c3         1 WUB      -0.047200
      6 C06          4.2510    -0.7120    -2.3650 c2         1 WUB      -0.125200
      7 C07          4.1630     0.2960    -3.2290 ce         1 WUB      -0.243600
      8 C08          3.1530     1.3370    -3.0280 cf         1 WUB       0.481600
      9 N09          2.7890     2.1370    -3.9800 ne         1 WUB      -0.610100
     10 C10          1.7580     3.0200    -3.8440 ca         1 WUB       0.066400
     11 C11          1.4620     3.8800    -4.9080 ca         1 WUB      -0.088000
     12 C12          0.4110     4.7660    -4.8090 ca         1 WUB      -0.167000
     13 C13         -0.3610     4.8130    -3.6600 ca         1 WUB      -0.132000
     14 C14         -0.0760     3.9770    -2.5970 ca         1 WUB      -0.185000
     15 C15          0.9850     3.0890    -2.6760 ca         1 WUB       0.129600
     16 N16          1.2900     2.2810    -1.5740 nu         1 WUB      -0.652600
     17 C17          2.4820     1.4310    -1.6740 c3         1 WUB       0.110200
     18 H041         1.4740    -0.4200    -2.0870 hc         1 WUB       0.062700
     19 H052         3.9100    -0.5110    -0.2860 hc         1 WUB       0.065700
     20 H051         3.0870    -1.8820    -1.0400 hc         1 WUB       0.065700
     21 H061         4.9990    -1.4760    -2.5390 ha         1 WUB       0.105000
     22 H071         4.7670     0.2940    -4.1280 ha         1 WUB       0.127000
     23 H111         1.4920     3.3790    -5.8680 ha         1 WUB       0.136000
     24 H121         0.1810     5.4230    -5.6390 ha         1 WUB       0.115000
     25 H131        -1.4210     4.8630    -3.8750 ha         1 WUB       0.122000
     26 H141        -0.9650     3.5250    -2.1750 ha         1 WUB       0.153000
     27 H161         1.3520     2.8480    -0.7520 hn         1 WUB       0.409800
     28 H171         3.2130     1.7840    -0.9560 h1         1 WUB       0.054700
@<TRIPOS>BOND
     1    12    11 ar
     2    12    13 ar
     3    11    10 ar
     4    13    14 ar
     5    10     9 1
     6    10    15 ar
     7    14    15 ar
     8     9     8 2
     9     3     2 1
    10    15    16 1
    11     8    17 1
    12     8     7 1
    13    17    16 1
    14    17     4 1
    15     7     6 2
    16     2     4 1
    17     2     1 1
    18     6     5 1
    19     4     5 1
    20     4    18 1
    21     5    19 1
    22     5    20 1
    23     6    21 1
    24     7    22 1
    25    11    23 1
    26    12    24 1
    27    13    25 1
    28    14    26 1
    29    16    27 1
    30    17    28 1
@<TRIPOS>SUBSTRUCTURE
     1 WUB         1 TEMP              0 ****  ****    0 ROOT
