@<TRIPOS>MOLECULE
WUB
   28    30     1     0     0
SMALL
bcc


@<TRIPOS>ATOM
      1 O01          0.0000     0.0000     0.0000 o          1 WUB      -0.889300
      2 C02          1.3420     0.0000     0.0000 c          1 WUB       0.979600
      3 O03          1.9460     0.0000     1.0460 o          1 WUB      -0.889300
      4 C04          2.0960    -0.0020    -1.3050 c3         1 WUB      -0.156700
      5 C05          3.3650    -0.8420    -1.1620 c3         1 WUB       0.016800
      6 C06          4.2510    -0.7120    -2.3650 c2         1 WUB      -0.103200
      7 C07          4.1630     0.2960    -3.2290 ce         1 WUB      -0.229600
      8 C08          3.1530     1.3370    -3.0280 ce         1 WUB       0.430600
      9 N09          2.7890     2.1370    -3.9800 nf         1 WUB      -0.494100
     10 C10          1.7580     3.0200    -3.8440 ca         1 WUB       0.024400
     11 C11          1.4620     3.8800    -4.9080 ca         1 WUB      -0.069000
     12 C12          0.4110     4.7660    -4.8090 ca         1 WUB      -0.148000
     13 C13         -0.3610     4.8130    -3.6600 ca         1 WUB      -0.104000
     14 C14         -0.0760     3.9770    -2.5970 ca         1 WUB      -0.163000
     15 C15          0.9850     3.0890    -2.6760 ca         1 WUB       0.029600
     16 N16          1.2900     2.2810    -1.5740 nu         1 WUB      -0.309600
     17 C17          2.4820     1.4310    -1.6740 c3         1 WUB       0.049200
     18 H041         1.4740    -0.4200    -2.0870 hc         1 WUB       0.040700
     19 H052         3.9100    -0.5110    -0.2860 hc         1 WUB       0.035700
     20 H051         3.0870    -1.8820    -1.0400 hc         1 WUB       0.035700
     21 H061         4.9990    -1.4760    -2.5390 ha         1 WUB       0.077000
     22 H071         4.7670     0.2940    -4.1280 ha         1 WUB       0.102000
     23 H111         1.4920     3.3790    -5.8680 ha         1 WUB       0.109000
     24 H121         0.1810     5.4230    -5.6390 ha         1 WUB       0.092000
     25 H131        -1.4210     4.8630    -3.8750 ha         1 WUB       0.096000
     26 H141        -0.9650     3.5250    -2.1750 ha         1 WUB       0.129000
     27 H161         1.3520     2.8480    -0.7520 hn         1 WUB       0.278800
     28 H171         3.2130     1.7840    -0.9560 h1         1 WUB       0.032700
@<TRIPOS>BOND
     1     1     2 1   
     2     2     3 1   
     3     2     4 1   
     4     4     5 1   
     5     4    17 1   
     6     4    18 1   
     7     5     6 1   
     8     5    19 1   
     9     5    20 1   
    10     6     7 2   
    11     6    21 1   
    12     7     8 1   
    13     7    22 1   
    14     8     9 2   
    15     8    17 1   
    16     9    10 1   
    17    10    11 ar  
    18    10    15 ar  
    19    11    12 ar  
    20    11    23 1   
    21    12    13 ar  
    22    12    24 1   
    23    13    14 ar  
    24    13    25 1   
    25    14    15 ar  
    26    14    26 1   
    27    15    16 1   
    28    16    17 1   
    29    16    27 1   
    30    17    28 1   
@<TRIPOS>SUBSTRUCTURE
     1 WUB         1 TEMP              0 ****  ****    0 ROOT
