@<TRIPOS>MOLECULE
WUL
   36    36     1     0     0
SMALL
bcc


@<TRIPOS>ATOM
      1 C14         0.5250    0.2420   -1.3620 c1        1 WUL     -0.019000
      2 N3          0.4210    0.6750    2.5370 n3        1 WUL      0.058000
      3 O3         -0.4000   -0.6540   -1.3110 oh        1 WUL     -0.155000
      4 C13         1.1480    0.6370   -2.6340 c3        1 WUL     -0.332000
      5 N1          2.8150    1.3370    4.1640 n2        1 WUL     -0.269000
      6 C12         1.3660    1.1060    1.7010 c2        1 WUL     -0.192000
      7 N2          1.3770    1.0460    6.1140 n         1 WUL     -0.328000
      8 C5          0.4620    0.7420    3.9170 c2        1 WUL     -0.362000
      9 C3          1.6050    1.0610    4.7240 c2        1 WUL      0.222000
     10 C2          3.8290    1.5900    5.0400 c2        1 WUL      0.096000
     11 C7          5.2310    1.9090    4.8310 c2        1 WUL     -0.208000
     12 C11         6.0400    2.0670    3.6820 c2        1 WUL      0.096000
     13 C10         7.3740    2.3790    3.8530 c2        1 WUL     -0.301000
     14 C9          7.9770    2.5500    5.1170 c1        1 WUL     -0.072000
     15 C8          7.1990    2.4020    6.3460 c3        1 WUL     -0.165000
     16 O2          4.8570    1.8790    7.1170 os        1 WUL     -0.024000
     17 C6          5.7840    2.0690    6.1200 c2        1 WUL      0.064000
     18 C1          3.6580    1.5850    6.4460 c2        1 WUL     -0.229000
     19 C4          2.3880    1.3060    7.0690 c2        1 WUL      0.389000
     20 C15        -0.7760    0.1430    2.0280 c1        1 WUL      0.074000
     21 H3         -0.6690   -1.0600   -2.1660 ho        1 WUL      0.172000
     22 H14        -0.8190   -1.9940    2.6970 ha        1 WUL      0.012500
     23 H151       -0.7290   -0.0560    0.9290 ha        1 WUL      0.067000
     24 H152       -0.4610   -2.1210    2.1310 ha        1 WUL      0.012500
     25 H131        1.0000    1.7390   -2.7750 hc        1 WUL      0.115333
     26 H132        0.7500    0.1020   -3.5340 hc        1 WUL      0.115333
     27 H121        2.2510    0.4520   -2.5620 hc        1 WUL      0.115333
     28 H122        1.2340    0.9300    0.6110 h4        1 WUL      0.195500
     29 H51C       -0.4960    0.4920    4.4020 h4        1 WUL      0.181000
     30 H52C        2.2650    1.6380    2.0480 h4        1 WUL      0.195500
     31 H2          0.4630    0.8390    6.4530 hn        1 WUL      0.251000
     32 H11         5.5770    1.9340    2.6890 ha        1 WUL      0.154000
     33 H9          7.6960    1.6050    6.9760 hc        1 WUL      0.179000
     34 H8          7.2890    3.3650    6.9320 hc        1 WUL      0.179000
     35 BR1         8.4730    2.5940    2.3510 br        1 WUL      0.055000
     36 O1          2.1100    1.2740    8.2790 o         1 WUL     -0.343000
@<TRIPOS>BOND
     1    1    3 1
     2    1    4 1
     3    2    6 1
     4    2    8 1
     5    2   20 1
     6    3   21 1
     7    4   25 1
     8    4   26 1
     9    4   27 1
    10    5    9 1
    11    5   10 1
    12    6   28 1
    13    6   30 1
    14    7    9 1
    15    7   19 1
    16    7   31 1
    17    8    9 1
    18    8   29 1
    19   10   11 1
    20   10   18 1
    21   11   12 1
    22   11   17 1
    23   12   13 1
    24   12   32 1
    25   13   14 1
    26   13   35 1
    27   14   15 1
    28   15   17 1
    29   15   33 1
    30   15   34 1
    31   16   17 1
    32   16   18 1
    33   18   19 1
    34   19   36 1
    35   20   23 1
    36   22   24 1
@<TRIPOS>SUBSTRUCTURE
     1 WUL         1 TEMP              0 ****  ****    0 ROOT
