@<TRIPOS>MOLECULE
molecule
   39    40     1     0     0
SMALL
bcc


@<TRIPOS>ATOM
      1 C1           0.0000     0.0000     0.0000 c3         1 WUN       0.264900
      2 O1          -0.4760    -1.1940     0.6250 oh         1 WUN      -0.628800
      3 C2           1.5310     0.0000     0.0000 c3         1 WUN      -0.060500
      4 N2           2.0220    -1.2000    -0.6900 nz         1 WUN      -0.867600
      5 C3           2.0340     0.0000     1.4460 c3         1 WUN       0.130100
      6 O3           3.4610     0.0750     1.4570 oh         1 WUN      -0.547800
      7 C4           1.4520     1.2140     2.1770 c3         1 WUN       0.075100
      8 O4           1.8570     1.1860     3.5470 os         1 WUN      -0.410600
      9 C5          -0.0750     1.1670     2.0940 c3         1 WUN       0.213100
     10 O5          -0.4750     1.1370     0.7220 os         1 WUN      -0.364600
     11 C6          -0.6630     2.4080     2.7690 c3         1 WUN      -0.000600
     12 O6          -2.0880     2.3110     2.7880 oh         1 WUN      -0.568800
     13 CAN          4.3240     0.9860     7.2320 ca         1 WUN      -0.119000
     14 CAO          2.9630     2.9420     7.4710 ca         1 WUN      -0.119000
     15 CAP          4.0840     0.9850     5.8710 ca         1 WUN      -0.096000
     16 CAQ          2.7240     2.9420     6.1100 ca         1 WUN      -0.096000
     17 CAU          3.0230     1.9630     3.8260 c3         1 WUN       0.179700
     18 CBD          3.7640     1.9640     8.0330 ca         1 WUN       0.047400
     19 CBE          3.2840     1.9630     5.3100 ca         1 WUN      -0.111300
     20 H1          -0.3590     0.0470    -1.0210 h2         1 WUN       0.086700
     21 H2           0.9520     0.4420    -0.8020 hx         1 WUN       0.221700
     22 HN2          2.3840    -0.4180    -1.1990 hn         1 WUN       0.479467
     23 HN2A         2.7090    -1.7210    -0.1830 hn         1 WUN       0.479467
     24 H3           1.7100    -0.9080     1.9410 h1         1 WUN       0.093700
     25 HO3          3.2020    -0.7210     1.8910 ho         1 WUN       0.418000
     26 H4           1.8110     2.1220     1.7080 h1         1 WUN       0.084700
     27 H5          -0.1680     0.2290     2.6280 h1         1 WUN       0.062700
     28 H6          -0.7790     1.4330     3.2270 h1         1 WUN       0.114200
     29 H6A         -0.1310     2.9630     3.5320 h1         1 WUN       0.114200
     30 HO6         -2.4590     3.1660     2.9280 ho         1 WUN       0.410000
     31 HAO          2.5240     3.7090     8.0980 ha         1 WUN       0.154500
     32 HAP          4.5230     0.2190     5.2440 ha         1 WUN       0.133500
     33 HAQ          2.0970     3.7080     5.6710 ha         1 WUN       0.133500
     34 HAU          3.8740     1.5350     3.3100 h1         1 WUN       0.047200
     35 HAUA         2.8690     2.9800     3.4860 h1         1 WUN       0.047200
     36 H7          -1.2470    -1.4980     0.1750 ho         1 WUN       0.447000
     37 ClA          4.0660     1.9650     9.7430 cl         1 WUN      -0.081400
     38 H23          1.3170    -1.7210    -1.1730 hn         1 WUN       0.479467
     39 HAN          4.9510     0.2190     7.6720 ha         1 WUN       0.154500
@<TRIPOS>BOND
     1     1     2 1
     2     1     3 1
     3     1    10 1
     4     3     4 1
     5     3     5 1
     6     5     6 1
     7     5     7 1
     8     7     8 1
     9     7     9 1
    10     8    17 1
    11     9    10 1
    12     9    11 1
    13    11    12 1
    14    13    15 ar
    15    13    18 ar
    16    14    16 ar
    17    14    18 ar
    18    15    19 ar
    19    16    19 ar
    20    17    19 1
    21    18    37 1
    22     1    20 1
    23     3    21 1
    24     4    22 1
    25     4    23 1
    26     5    24 1
    27     6    25 1
    28     7    26 1
    29     9    27 1
    30    11    28 1
    31    11    29 1
    32    12    30 1
    33    13    39 1
    34    14    31 1
    35    15    32 1
    36    16    33 1
    37    17    34 1
    38    17    35 1
    39     2    36 1
    40    38     4 1
@<TRIPOS>SUBSTRUCTURE
     1 WUN         1 TEMP              0 ****  ****    0 ROOT
