@<TRIPOS>MOLECULE
WUN
   39    41     1     0     0
SMALL
bcc


@<TRIPOS>ATOM
      1 C1           0.0000     0.0000     0.0000 DU         1 WUN       0.160000
      2 O1          -0.4760    -1.1940     0.6250 oh         1 WUN      -0.348000
      3 C2           1.5310     0.0000     0.0000 c3         1 WUN      -0.437000
      4 N2           2.0220    -1.2000    -0.6900 nz         1 WUN       0.740000
      5 C3           2.0340     0.0000     1.4460 c3         1 WUN       0.090000
      6 O3           3.4610     0.0750     1.4570 oh         1 WUN      -0.279000
      7 C4           1.4520     1.2140     2.1770 c3         1 WUN      -0.027000
      8 O4           1.8570     1.1860     3.5470 os         1 WUN      -0.251000
      9 C5          -0.0750     1.1670     2.0940 c3         1 WUN       0.157000
     10 O5          -0.4750     1.1370     0.7220 os         1 WUN      -0.215000
     11 C6          -0.6630     2.4080     2.7690 c3         1 WUN      -0.105000
     12 O6          -2.0880     2.3110     2.7880 oh         1 WUN      -0.276000
     13 CAN          4.3240     0.9860     7.2320 ca         1 WUN      -0.095500
     14 CAO          2.9630     2.9420     7.4710 ca         1 WUN      -0.095500
     15 CAP          4.0840     0.9850     5.8710 ca         1 WUN      -0.066000
     16 CAQ          2.7240     2.9420     6.1100 ca         1 WUN      -0.066000
     17 CAU          3.0230     1.9630     3.8260 c3         1 WUN       0.108000
     18 CBD          3.7640     1.9640     8.0330 ca         1 WUN      -0.101000
     19 CBE          3.2840     1.9630     5.3100 ca         1 WUN      -0.126000
     20 H1          -0.3590     0.0470    -1.0210 ha         1 WUN       0.077000
     21 H2           0.9520     0.4420    -0.8020 DU         1 WUN       0.234000
     22 HN2          2.3840    -0.4180    -1.1990 hn         1 WUN       0.056000
     23 HN2A         2.7090    -1.7210    -0.1830 hn         1 WUN       0.056000
     24 H3           1.7100    -0.9080     1.9410 h1         1 WUN       0.087000
     25 HO3          3.2020    -0.7210     1.8910 ho         1 WUN       0.215000
     26 H4           1.8110     2.1220     1.7080 h1         1 WUN       0.096000
     27 H5          -0.1680     0.2290     2.6280 h1         1 WUN       0.067000
     28 H6          -0.7790     1.4330     3.2270 h1         1 WUN       0.110000
     29 H6A         -0.1310     2.9630     3.5320 h1         1 WUN       0.110000
     30 HO6         -2.4590     3.1660     2.9280 ho         1 WUN       0.201000
     31 HAO          2.5240     3.7090     8.0980 ha         1 WUN       0.122000
     32 HAP          4.5230     0.2190     5.2440 ha         1 WUN       0.103000
     33 HAQ          2.0970     3.7080     5.6710 ha         1 WUN       0.103000
     34 HAU          3.8740     1.5350     3.3100 h1         1 WUN       0.048500
     35 HAUA         2.8690     2.9800     3.4860 h1         1 WUN       0.048500
     36 H7          -1.2470    -1.4980     0.1750 ho         1 WUN       0.238000
     37 ClA          4.0660     1.9650     9.7430 cl         1 WUN       0.083000
     38 H23          1.3170    -1.7210    -1.1730 hn         1 WUN       0.056000
     39 HAN          4.9510     0.2190     7.6720 ha         1 WUN       0.122000
@<TRIPOS>BOND
     1     1     2 1   
     2     1     3 1   
     3     1    10 1   
     4     1    20 1   
     5     1    21 1   
     6     2    36 1   
     7     3     4 1   
     8     3     5 1   
     9     3    21 1   
    10     4    22 1   
    11     4    23 1   
    12     4    38 1   
    13     5     6 1   
    14     5     7 1   
    15     5    24 1   
    16     6    25 1   
    17     7     8 1   
    18     7     9 1   
    19     7    26 1   
    20     8    17 1   
    21     9    10 1   
    22     9    11 1   
    23     9    27 1   
    24    11    12 1   
    25    11    28 1   
    26    11    29 1   
    27    12    30 1   
    28    13    15 1   
    29    13    18 1   
    30    13    39 1   
    31    14    16 1   
    32    14    18 1   
    33    14    31 1   
    34    15    19 1   
    35    15    32 1   
    36    16    19 1   
    37    16    33 1   
    38    17    19 1   
    39    17    34 1   
    40    17    35 1   
    41    18    37 1   
@<TRIPOS>SUBSTRUCTURE
     1 WUN         1 TEMP              0 ****  ****    0 ROOT
