@<TRIPOS>MOLECULE
molecule
   27    28     1     0     0
SMALL
bcc


@<TRIPOS>ATOM
      1 OAA          0.0000     0.0000     0.0000 o          1 WV7      -0.550100
      2 FAC          1.0570    -1.1910    -2.0470 f          1 WV7      -0.210967
      3 FAD          2.7710    -1.6800    -0.6180 f          1 WV7      -0.210967
      4 FAE          2.7700     0.2950    -1.7660 f          1 WV7      -0.210967
      5 CAF          5.6990    -0.3050     3.8360 ca         1 WV7      -0.151000
      6 CAG          5.1900     0.0000     2.5910 ca         1 WV7      -0.107000
      7 CAH          3.4990    -0.0930     4.7650 ca         1 WV7      -0.154000
      8 CAI          1.5080     0.4640     3.4010 c3         1 WV7      -0.057100
      9 CAJ          1.1790     1.2370     2.1250 c3         1 WV7       0.111000
     10 CAK          3.3520     0.6050     1.0390 c3         1 WV7       0.139300
     11 CAL          1.2130     0.0000     0.0000 c          1 WV7       0.623100
     12 CAM          4.8480    -0.3500     4.9330 ca         1 WV7       0.114100
     13 CAN          3.8360     0.2620     2.4250 ca         1 WV7      -0.109300
     14 CAO          2.9880     0.2110     3.5100 ca         1 WV7      -0.052300
     15 NAP          1.8860     0.5880     1.0090 n          1 WV7      -0.469800
     16 CAQ          1.9660    -0.6560    -1.1280 c3         1 WV7       0.552900
     17 HOAB         5.5750     0.1510     6.6090 ho         1 WV7       0.422000
     18 HAF          6.7310    -0.6160     3.9380 ha         1 WV7       0.146000
     19 HAG          5.8530     0.0350     1.7350 ha         1 WV7       0.136000
     20 HAH          2.8350    -0.1310     5.6200 ha         1 WV7       0.143000
     21 HAI          1.1830     1.0410     4.2590 hc         1 WV7       0.066200
     22 HAIA         0.9860    -0.4850     3.3860 hc         1 WV7       0.066200
     23 HAJ          1.5350     2.2560     2.2260 h1         1 WV7       0.073200
     24 HAJA         0.1120     1.1880     1.9460 h1         1 WV7       0.073200
     25 HAK          3.7050     1.5940     0.7710 h1         1 WV7       0.069200
     26 HAKA         3.7350    -0.1230     0.3350 h1         1 WV7       0.069200
     27 OAB          5.3400    -0.6460     6.1640 oh         1 WV7      -0.520100
@<TRIPOS>BOND
     1     1    11 2
     2    27    12 1
     3     2    16 1
     4     3    16 1
     5     4    16 1
     6     5     6 ar
     7     5    12 ar
     8     6    13 ar
     9     7    12 ar
    10     7    14 ar
    11     8     9 1
    12     8    14 1
    13     9    15 1
    14    10    13 1
    15    10    15 1
    16    11    15 1
    17    11    16 1
    18    13    14 ar
    19    27    17 1
    20     5    18 1
    21     6    19 1
    22     7    20 1
    23     8    21 1
    24     8    22 1
    25     9    23 1
    26     9    24 1
    27    10    25 1
    28    10    26 1
@<TRIPOS>SUBSTRUCTURE
     1 WV7         1 TEMP              0 ****  ****    0 ROOT
