@<TRIPOS>MOLECULE
WV7
   27    28     1     0     0
SMALL
bcc


@<TRIPOS>ATOM
      1 OAA          0.0000     0.0000     0.0000 o          1 WV7      -0.587100
      2 FAC          1.0570    -1.1910    -2.0470 f          1 WV7      -0.195967
      3 FAD          2.7710    -1.6800    -0.6180 f          1 WV7      -0.195967
      4 FAE          2.7700     0.2950    -1.7660 f          1 WV7      -0.195967
      5 CAF          5.6990    -0.3050     3.8360 ca         1 WV7      -0.137000
      6 CAG          5.1900     0.0000     2.5910 ca         1 WV7      -0.068000
      7 CAH          3.4990    -0.0930     4.7650 ca         1 WV7      -0.140000
      8 CAI          1.5080     0.4640     3.4010 c3         1 WV7       0.012900
      9 CAJ          1.1790     1.2370     2.1250 c3         1 WV7       0.050000
     10 CAK          3.3520     0.6050     1.0390 c3         1 WV7       0.090300
     11 CAL          1.2130     0.0000     0.0000 c          1 WV7       0.530100
     12 CAM          4.8480    -0.3500     4.9330 ca         1 WV7       0.136100
     13 CAN          3.8360     0.2620     2.4250 ca         1 WV7      -0.124300
     14 CAO          2.9880     0.2110     3.5100 ca         1 WV7      -0.053300
     15 NAP          1.8860     0.5880     1.0090 n          1 WV7      -0.116800
     16 CAQ          1.9660    -0.6560    -1.1280 c3         1 WV7       0.510900
     17 HOAB         5.5750     0.1510     6.6090 ho         1 WV7       0.405000
     18 HAF          6.7310    -0.6160     3.9380 ha         1 WV7       0.119000
     19 HAG          5.8530     0.0350     1.7350 ha         1 WV7       0.108000
     20 HAH          2.8350    -0.1310     5.6200 ha         1 WV7       0.119000
     21 HAI          1.1830     1.0410     4.2590 hc         1 WV7       0.033700
     22 HAIA         0.9860    -0.4850     3.3860 hc         1 WV7       0.033700
     23 HAJ          1.5350     2.2560     2.2260 h1         1 WV7       0.044200
     24 HAJA         0.1120     1.1880     1.9460 h1         1 WV7       0.044200
     25 HAK          3.7050     1.5940     0.7710 h1         1 WV7       0.039200
     26 HAKA         3.7350    -0.1230     0.3350 h1         1 WV7       0.039200
     27 OAB          5.3400    -0.6460     6.1640 oh         1 WV7      -0.499100
@<TRIPOS>BOND
     1     1    11 2   
     2     2    16 1   
     3     3    16 1   
     4     4    16 1   
     5     5     6 ar  
     6     5    12 ar  
     7     5    18 1   
     8     6    13 ar  
     9     6    19 1   
    10     7    12 ar  
    11     7    14 ar  
    12     7    20 1   
    13     8     9 1   
    14     8    14 1   
    15     8    21 1   
    16     8    22 1   
    17     9    15 1   
    18     9    23 1   
    19     9    24 1   
    20    10    13 1   
    21    10    15 1   
    22    10    25 1   
    23    10    26 1   
    24    11    15 1   
    25    11    16 1   
    26    12    27 1   
    27    13    14 ar  
    28    17    27 1   
@<TRIPOS>SUBSTRUCTURE
     1 WV7         1 TEMP              0 ****  ****    0 ROOT
