@<TRIPOS>MOLECULE
WVH
   73    78     1     0     0
SMALL
bcc


@<TRIPOS>ATOM
      1 O1           0.0000     0.0000     0.0000 o          1 WVH      -0.619100
      2 C5           1.2120     0.0000     0.0000 c          1 WVH       0.549100
      3 N1           1.8860     0.0060    -1.1680 ns         1 WVH      -0.024100
      4 C4           1.1930    -0.1070    -2.3740 ca         1 WVH      -0.059400
      5 C3           1.7250     0.4080    -3.5540 ca         1 WVH      -0.250800
      6 C2           1.0080     0.2750    -4.7260 ca         1 WVH       0.424200
      7 N           -0.1640    -0.3300    -4.7370 nb         1 WVH      -0.601000
      8 C1          -0.7010    -0.8300    -3.6410 ca         1 WVH       0.424200
      9 C           -0.0460    -0.7440    -2.4290 ca         1 WVH      -0.250800
     10 C6           1.9660     0.0000     1.3050 c3         1 WVH      -0.055300
     11 C24          2.8460     1.2490     1.3860 c3         1 WVH       0.066800
     12 C25          3.6910     1.1880     2.6320 cc         1 WVH      -0.167400
     13 C28          4.9800     0.5080     2.7790 ca         1 WVH      -0.090800
     14 C29          5.7880    -0.2370     1.9170 ca         1 WVH      -0.048000
     15 C30          6.9680    -0.7530     2.3710 ca         1 WVH      -0.122000
     16 C31          7.3730    -0.5420     3.6830 ca         1 WVH      -0.080000
     17 C32          6.5900     0.1900     4.5490 ca         1 WVH      -0.098000
     18 C27          5.3840     0.7240     4.1080 ca         1 WVH      -0.223200
     19 N5           4.4050     1.4810     4.7140 na         1 WVH       0.361600
     20 C26          3.4080     1.7520     3.8170 cd         1 WVH      -0.261100
     21 N2           1.0150    -0.0010     2.4180 ns         1 WVH      -0.162900
     22 C7           0.4990    -1.1640     2.8640 c          1 WVH       0.608700
     23 O            0.8250    -2.2120     2.3420 o          1 WVH      -0.633100
     24 C8          -0.4580    -1.1640     3.9840 ca         1 WVH      -0.210600
     25 C23         -0.9950    -2.3710     4.4500 ca         1 WVH       0.213900
     26 F2          -0.6360    -3.5400     3.8730 f          1 WVH      -0.106900
     27 C22         -1.8900    -2.3640     5.4990 ca         1 WVH      -0.181000
     28 C11         -2.2560    -1.1580     6.0900 ca         1 WVH       0.061600
     29 C10         -1.7210     0.0400     5.6250 ca         1 WVH      -0.202000
     30 C9          -0.8290     0.0400     4.5900 ca         1 WVH      -0.026000
     31 N3          -3.1580    -1.1500     7.1480 nh         1 WVH      -0.340000
     32 C21         -3.4030     0.2190     7.6210 c3         1 WVH       0.045800
     33 C20         -4.4590     0.1930     8.7290 c3         1 WVH       0.159800
     34 N4          -3.9900    -0.6640     9.8270 nh         1 WVH      -0.388000
     35 C13         -3.7460    -2.0340     9.3550 c3         1 WVH       0.159800
     36 C12         -2.6900    -2.0070     8.2460 c3         1 WVH       0.045800
     37 C14         -2.8450    -0.1280    10.4290 ca         1 WVH      -0.026400
     38 C19         -2.8690     0.2350    11.7710 ca         1 WVH       0.164900
     39 F1          -3.9970     0.0720    12.4970 f          1 WVH      -0.112900
     40 C18         -1.7360     0.7640    12.3620 ca         1 WVH      -0.163000
     41 C17         -0.5800     0.9310    11.6170 ca         1 WVH       0.131900
     42 F            0.5260     1.4470    12.1970 f          1 WVH      -0.122900
     43 C16         -0.5560     0.5690    10.2820 ca         1 WVH      -0.135000
     44 C15         -1.6830     0.0350     9.6880 ca         1 WVH      -0.158000
     45 H1           2.8850     0.0590    -1.1690 hn         1 WVH       0.171500
     46 H6           2.5890    -0.8840     1.3620 h1         1 WVH       0.079700
     47 H3           2.6870     0.9050    -3.5520 ha         1 WVH       0.138000
     48 H           -0.4920    -1.1560    -1.5320 ha         1 WVH       0.138000
     49 H2           1.4140     0.6720    -5.6490 h4         1 WVH      -0.020400
     50 HA          -1.6660    -1.3210    -3.6940 h4         1 WVH      -0.020400
     51 H241         2.2190     2.1320     1.4180 hc         1 WVH       0.022200
     52 H242         3.4890     1.2950     0.5150 hc         1 WVH       0.022200
     53 HB           0.7200     0.8650     2.8250 hn         1 WVH       0.178500
     54 H26          2.5210     2.3370     4.0320 h4         1 WVH       0.136000
     55 H29          5.4790    -0.4050     0.8920 ha         1 WVH       0.096000
     56 H30          7.5950    -1.3300     1.7020 ha         1 WVH       0.104000
     57 H31          8.3120    -0.9570     4.0280 ha         1 WVH       0.103000
     58 H32          6.9140     0.3490     5.5710 ha         1 WVH       0.101000
     59 H5           4.4230     1.7910     5.6650 hn         1 WVH       0.115700
     60 H9          -0.4150     0.9750     4.2320 ha         1 WVH       0.103000
     61 H22         -2.3080    -3.2950     5.8620 ha         1 WVH       0.136000
     62 H10         -2.0070     0.9760     6.0910 ha         1 WVH       0.127000
     63 H211        -3.7600     0.8260     6.7980 h1         1 WVH       0.046700
     64 H212        -2.4820     0.6360     8.0110 h1         1 WVH       0.046700
     65 H121        -2.5310    -3.0130     7.8750 h1         1 WVH       0.046700
     66 H122        -1.7620    -1.6120     8.6410 h1         1 WVH       0.046700
     67 H201        -5.3860    -0.2030     8.3330 h1         1 WVH       0.037950
     68 H202        -4.6170     1.1990     9.0990 h1         1 WVH       0.037950
     69 H131        -4.6670    -2.4500     8.9650 h1         1 WVH       0.037950
     70 H132        -3.3890    -2.6400    10.1780 h1         1 WVH       0.037950
     71 H15         -1.6630    -0.2470     8.6420 ha         1 WVH       0.170000
     72 H18         -1.7530     1.0470    13.4070 ha         1 WVH       0.138000
     73 H16          0.3500     0.6990     9.7030 ha         1 WVH       0.121000
@<TRIPOS>BOND
     1     1     2 2   
     2     2     3 1   
     3     2    10 1   
     4     3     4 1   
     5     3    45 1   
     6     4     5 ar  
     7     4     9 ar  
     8     5     6 ar  
     9     5    47 1   
    10     6     7 ar  
    11     6    49 1   
    12     7     8 ar  
    13     8     9 ar  
    14     8    50 1   
    15     9    48 1   
    16    10    11 1   
    17    10    21 1   
    18    10    46 1   
    19    11    12 1   
    20    11    51 1   
    21    11    52 1   
    22    12    13 1   
    23    12    20 2   
    24    13    14 ar  
    25    13    18 ar  
    26    14    15 ar  
    27    14    55 1   
    28    15    16 ar  
    29    15    56 1   
    30    16    17 ar  
    31    16    57 1   
    32    17    18 ar  
    33    17    58 1   
    34    18    19 1   
    35    19    20 1   
    36    19    59 1   
    37    20    54 1   
    38    21    22 1   
    39    21    53 1   
    40    22    23 2   
    41    22    24 1   
    42    24    25 ar  
    43    24    30 ar  
    44    25    26 1   
    45    25    27 ar  
    46    27    28 ar  
    47    27    61 1   
    48    28    29 ar  
    49    28    31 1   
    50    29    30 ar  
    51    29    62 1   
    52    30    60 1   
    53    31    32 1   
    54    31    36 1   
    55    32    33 1   
    56    32    63 1   
    57    32    64 1   
    58    33    34 1   
    59    33    67 1   
    60    33    68 1   
    61    34    35 1   
    62    34    37 1   
    63    35    36 1   
    64    35    69 1   
    65    35    70 1   
    66    36    65 1   
    67    36    66 1   
    68    37    38 ar  
    69    37    44 ar  
    70    38    39 1   
    71    38    40 ar  
    72    40    41 ar  
    73    40    72 1   
    74    41    42 1   
    75    41    43 ar  
    76    43    44 ar  
    77    43    73 1   
    78    44    71 1   
@<TRIPOS>SUBSTRUCTURE
     1 WVH         1 TEMP              0 ****  ****    0 ROOT
