@<TRIPOS>MOLECULE
molecule
   73    78     1     0     0
SMALL
bcc


@<TRIPOS>ATOM
      1 O1           0.0000     0.0000     0.0000 o          1 WVH      -0.574100
      2 C5           1.2120     0.0000     0.0000 c          1 WVH       0.644100
      3 N1           1.8860     0.0060    -1.1680 ns         1 WVH      -0.474100
      4 C4           1.1930    -0.1070    -2.3740 ca         1 WVH       0.090600
      5 C3           1.7250     0.4080    -3.5540 ca         1 WVH      -0.279300
      6 C2           1.0080     0.2750    -4.7260 ca         1 WVH       0.435700
      7 N           -0.1640    -0.3300    -4.7370 nb         1 WVH      -0.709000
      8 C1          -0.7010    -0.8300    -3.6410 ca         1 WVH       0.435700
      9 C           -0.0460    -0.7440    -2.4290 ca         1 WVH      -0.279300
     10 C6           1.9660     0.0000     1.3050 c3         1 WVH       0.051700
     11 C24          2.8460     1.2490     1.3860 c3         1 WVH      -0.010200
     12 C25          3.6910     1.1880     2.6320 cc         1 WVH      -0.164400
     13 C28          4.9800     0.5080     2.7790 ca         1 WVH      -0.096800
     14 C29          5.7880    -0.2370     1.9170 ca         1 WVH      -0.082000
     15 C30          6.9680    -0.7530     2.3710 ca         1 WVH      -0.149000
     16 C31          7.3730    -0.5420     3.6830 ca         1 WVH      -0.105000
     17 C32          6.5900     0.1900     4.5490 ca         1 WVH      -0.140000
     18 C27          5.3840     0.7240     4.1080 ca         1 WVH      -0.034200
     19 N5           4.4050     1.4810     4.7140 na         1 WVH      -0.179400
     20 C26          3.4080     1.7520     3.8170 cd         1 WVH      -0.089100
     21 N2           1.0150    -0.0010     2.4180 ns         1 WVH      -0.558900
     22 C7           0.4990    -1.1640     2.8640 c          1 WVH       0.688700
     23 O            0.8250    -2.2120     2.3420 o          1 WVH      -0.590100
     24 C8          -0.4580    -1.1640     3.9840 ca         1 WVH      -0.211600
     25 C23         -0.9950    -2.3710     4.4500 ca         1 WVH       0.224900
     26 F2          -0.6360    -3.5400     3.8730 f          1 WVH      -0.103900
     27 C22         -1.8900    -2.3640     5.4990 ca         1 WVH      -0.209000
     28 C11         -2.2560    -1.1580     6.0900 ca         1 WVH       0.149600
     29 C10         -1.7210     0.0400     5.6250 ca         1 WVH      -0.219000
     30 C9          -0.8290     0.0400     4.5900 ca         1 WVH      -0.051000
     31 N3          -3.1580    -1.1500     7.1480 nh         1 WVH      -0.589000
     32 C21         -3.4030     0.2190     7.6210 c3         1 WVH       0.094800
     33 C20         -4.4590     0.1930     8.7290 c3         1 WVH       0.171300
     34 N4          -3.9900    -0.6640     9.8270 nh         1 WVH      -0.598000
     35 C13         -3.7460    -2.0340     9.3550 c3         1 WVH       0.171300
     36 C12         -2.6900    -2.0070     8.2460 c3         1 WVH       0.094800
     37 C14         -2.8450    -0.1280    10.4290 ca         1 WVH       0.021600
     38 C19         -2.8690     0.2350    11.7710 ca         1 WVH       0.190900
     39 F1          -3.9970     0.0720    12.4970 f          1 WVH      -0.115900
     40 C18         -1.7360     0.7640    12.3620 ca         1 WVH      -0.211000
     41 C17         -0.5800     0.9310    11.6170 ca         1 WVH       0.160900
     42 F            0.5260     1.4470    12.1970 f          1 WVH      -0.132900
     43 C16         -0.5560     0.5690    10.2820 ca         1 WVH      -0.182000
     44 C15         -1.6830     0.0350     9.6880 ca         1 WVH      -0.148000
     45 H1           2.8850     0.0590    -1.1690 hn         1 WVH       0.326500
     46 H6           2.5890    -0.8840     1.3620 h1         1 WVH       0.108700
     47 H3           2.6870     0.9050    -3.5520 ha         1 WVH       0.156500
     48 H           -0.4920    -1.1560    -1.5320 ha         1 WVH       0.156500
     49 H2           1.4140     0.6720    -5.6490 h4         1 WVH       0.024600
     50 HA          -1.6660    -1.3210    -3.6940 h4         1 WVH       0.024600
     51 H241         2.2190     2.1320     1.4180 hc         1 WVH       0.056200
     52 H242         3.4890     1.2950     0.5150 hc         1 WVH       0.056200
     53 HB           0.7200     0.8650     2.8250 hn         1 WVH       0.316500
     54 H26          2.5210     2.3370     4.0320 h4         1 WVH       0.159000
     55 H29          5.4790    -0.4050     0.8920 ha         1 WVH       0.124000
     56 H30          7.5950    -1.3300     1.7020 ha         1 WVH       0.132000
     57 H31          8.3120    -0.9570     4.0280 ha         1 WVH       0.133000
     58 H32          6.9140     0.3490     5.5710 ha         1 WVH       0.127000
     59 H5           4.4230     1.7910     5.6650 hn         1 WVH       0.298700
     60 H9          -0.4150     0.9750     4.2320 ha         1 WVH       0.129000
     61 H22         -2.3080    -3.2950     5.8620 ha         1 WVH       0.159000
     62 H10         -2.0070     0.9760     6.0910 ha         1 WVH       0.141000
     63 H211        -3.7600     0.8260     6.7980 h1         1 WVH       0.061700
     64 H212        -2.4820     0.6360     8.0110 h1         1 WVH       0.061700
     65 H121        -2.5310    -3.0130     7.8750 h1         1 WVH       0.061700
     66 H122        -1.7620    -1.6120     8.6410 h1         1 WVH       0.061700
     67 H201        -5.3860    -0.2030     8.3330 h1         1 WVH       0.073950
     68 H202        -4.6170     1.1990     9.0990 h1         1 WVH       0.073950
     69 H131        -4.6670    -2.4500     8.9650 h1         1 WVH       0.073950
     70 H132        -3.3890    -2.6400    10.1780 h1         1 WVH       0.073950
     71 H15         -1.6630    -0.2470     8.6420 ha         1 WVH       0.175000
     72 H18         -1.7530     1.0470    13.4070 ha         1 WVH       0.165000
     73 H16          0.3500     0.6990     9.7030 ha         1 WVH       0.148000
@<TRIPOS>BOND
     1     1     2 2
     2     2     3 1
     3     2    10 1
     4     3     4 1
     5     4     5 ar
     6     4     9 ar
     7     5     6 ar
     8     6     7 ar
     9     7     8 ar
    10     8     9 ar
    11    10    11 1
    12    10    21 1
    13    11    12 1
    14    12    13 1
    15    12    20 2
    16    13    14 ar
    17    13    18 ar
    18    14    15 ar
    19    15    16 ar
    20    16    17 ar
    21    17    18 ar
    22    18    19 1
    23    19    20 1
    24    21    22 1
    25    22    23 2
    26    22    24 1
    27    24    25 ar
    28    24    30 ar
    29    25    26 1
    30    25    27 ar
    31    27    28 ar
    32    28    29 ar
    33    28    31 1
    34    29    30 ar
    35    31    32 1
    36    31    36 1
    37    32    33 1
    38    33    34 1
    39    34    35 1
    40    34    37 1
    41    35    36 1
    42    37    38 ar
    43    37    44 ar
    44    38    39 1
    45    38    40 ar
    46    40    41 ar
    47    41    42 1
    48    41    43 ar
    49    43    44 ar
    50     3    45 1
    51    10    46 1
    52     5    47 1
    53     9    48 1
    54     6    49 1
    55     8    50 1
    56    11    51 1
    57    11    52 1
    58    21    53 1
    59    20    54 1
    60    14    55 1
    61    15    56 1
    62    16    57 1
    63    17    58 1
    64    19    59 1
    65    30    60 1
    66    27    61 1
    67    29    62 1
    68    32    63 1
    69    32    64 1
    70    36    65 1
    71    36    66 1
    72    33    67 1
    73    33    68 1
    74    35    69 1
    75    35    70 1
    76    44    71 1
    77    40    72 1
    78    43    73 1
@<TRIPOS>SUBSTRUCTURE
     1 WVH         1 TEMP              0 ****  ****    0 ROOT
