@<TRIPOS>MOLECULE
molecule
   21    22     1     0     0
SMALL
bcc


@<TRIPOS>ATOM
      1 C1           0.0000     0.0000     0.0000 c3         1 WVI      -0.113400
      2 C4           3.5810     0.0000     0.9750 cc         1 WVI       0.193300
      3 C5           2.5970     0.0000     0.0000 cd         1 WVI      -0.269300
      4 C6           1.3540    -0.0010     0.6630 cd         1 WVI       0.372600
      5 N7           1.5740     0.0000     1.9490 nc         1 WVI      -0.517800
      6 C9           3.3850    -0.9980    -2.1660 cc         1 WVI      -0.157000
      7 C10          2.8120    -0.0000    -1.4630 cd         1 WVI       0.078900
      8 S11          2.3600     1.3000    -2.5570 ss         1 WVI      -0.172800
      9 C12          2.9840     0.4030    -3.9340 cd         1 WVI      -0.082100
     10 N            2.9560    -0.0060     2.1750 na         1 WVI      -0.061600
     11 C13          3.4760    -0.7680    -3.5260 cc         1 WVI      -0.155000
     12 H11C        -0.1700     0.9600    -0.4730 hc         1 WVI       0.053033
     13 H12C        -0.0370    -0.7830    -0.7480 hc         1 WVI       0.053033
     14 H13C        -0.7670    -0.1760     0.7450 hc         1 WVI       0.053033
     15 H31N         5.3900     0.7800     0.3100 hn         1 WVI       0.440300
     16 H32N         5.5150    -0.7490     1.1170 hn         1 WVI       0.440300
     17 H            3.4040    -0.0070     3.0700 hn         1 WVI       0.326700
     18 H9           3.7460    -1.9080    -1.7020 ha         1 WVI       0.150000
     19 H13          3.9140    -1.4850    -4.2090 ha         1 WVI       0.144000
     20 H12          2.9710     0.7500    -4.9610 h4         1 WVI       0.167000
     21 N3           4.9540    -0.0000     0.7610 nv         1 WVI      -0.943200
@<TRIPOS>BOND
     1     1     4 1
     2    21     2 1
     3     2     3 2
     4     2    10 1
     5     3     4 1
     6     3     7 1
     7     4     5 2
     8     5    10 1
     9     6     7 2
    10     6    11 1
    11     7     8 1
    12     8     9 1
    13     9    11 2
    14     1    12 1
    15     1    13 1
    16     1    14 1
    17    21    15 1
    18    21    16 1
    19    10    17 1
    20     6    18 1
    21    11    19 1
    22     9    20 1
@<TRIPOS>SUBSTRUCTURE
     1 WVI         1 TEMP              0 ****  ****    0 ROOT
