@<TRIPOS>MOLECULE
molecule
   24    25     1     0     0
SMALL
bcc


@<TRIPOS>ATOM
      1 C            0.0000     0.0000     0.0000 c          1 WVV       0.883200
      2 O            1.2140     0.0000     0.0000 o          1 WVV      -0.836300
      3 C1          -0.7400     0.0000     1.2800 ca         1 WVV      -0.108600
      4 C10         -2.1430     0.0020     3.6760 ca         1 WVV      -0.126000
      5 C11         -2.8270     0.0060     2.4760 ca         1 WVV      -0.167000
      6 C12         -2.1360     0.0050     1.2810 ca         1 WVV      -0.083000
      7 C2          -0.0450    -0.0100     2.4890 ca         1 WVV      -0.083000
      8 C3          -0.7490    -0.0100     3.6870 cp         1 WVV      -0.096000
      9 C4          -0.0160    -0.0210     4.9790 cp         1 WVV      -0.034000
     10 C5          -0.3380     0.9030     5.9740 ca         1 WVV       0.130900
     11 C6           0.3480     0.8870     7.1740 ca         1 WVV      -0.177000
     12 C7           1.3510    -0.0410     7.3870 ca         1 WVV      -0.126000
     13 C8           1.6740    -0.9570     6.4030 ca         1 WVV      -0.150000
     14 C9           0.9920    -0.9560     5.2030 ca         1 WVV      -0.096000
     15 F           -1.3180     1.8100     5.7660 f          1 WVV      -0.138900
     16 O1          -0.6730     0.0040    -1.1660 o          1 WVV      -0.836300
     17 H5          -2.6910     0.0020     4.6100 ha         1 WVV       0.110000
     18 H6          -3.9100     0.0130     2.4730 ha         1 WVV       0.108000
     19 H7          -2.6780     0.0090     0.3440 ha         1 WVV       0.154000
     20 H            1.0390    -0.0190     2.4930 ha         1 WVV       0.149000
     21 H1           0.1000     1.6020     7.9490 ha         1 WVV       0.131000
     22 H2           1.8880    -0.0480     8.3280 ha         1 WVV       0.120000
     23 H3           2.4600    -1.6830     6.5770 ha         1 WVV       0.123000
     24 H4           1.2470    -1.6750     4.4340 ha         1 WVV       0.150000
@<TRIPOS>BOND
     1    12    11 ar
     2    12    13 ar
     3    11    10 ar
     4    13    14 ar
     5    10    15 1
     6    10     9 ar
     7    14     9 ar
     8     9     8 1
     9     2     1 1
    10     7     8 ar
    11     7     3 ar
    12     8     4 ar
    13     1     3 1
    14     1    16 1
    15     3     6 ar
    16     4     5 ar
    17     6     5 ar
    18     4    17 1
    19     5    18 1
    20     6    19 1
    21     7    20 1
    22    11    21 1
    23    12    22 1
    24    13    23 1
    25    14    24 1
@<TRIPOS>SUBSTRUCTURE
     1 WVV         1 TEMP              0 ****  ****    0 ROOT
