@<TRIPOS>MOLECULE
WW2
   25    25     1     0     0
SMALL
bcc


@<TRIPOS>ATOM
      1 C1         -0.2230    0.0230    0.1090 c3        1 WW2     -0.089400
      2 F1         -3.0880    3.3880    1.6960 f         1 WW2     -0.341400
      3 O1         -2.1150    3.3390   -0.5770 o         1 WW2     -0.842300
      4 P1         -2.8360    2.5660    0.4280 p5        1 WW2      1.599300
      5 C2          1.2750   -0.1000   -0.0670 c3        1 WW2     -0.076400
      6 O2         -1.9740    1.3570    1.0470 os        1 WW2     -0.614200
      7 C3          1.9990    0.0000    1.2600 c3        1 WW2     -0.079400
      8 C4          1.6390    1.2820    1.9840 c3        1 WW2     -0.076400
      9 C5          0.1420    1.4100    2.1700 c3        1 WW2     -0.089400
     10 C6         -0.5740    1.3300    0.8210 c3        1 WW2      0.183100
     11 C7         -4.2570    1.8740   -0.0000 c3        1 WW2     -0.459300
     12 H1         -0.7250   -0.0080   -0.8920 hc        1 WW2      0.049950
     13 H1A        -0.6150   -0.8360    0.7120 hc        1 WW2      0.049950
     14 H2          1.5110   -1.0830   -0.5500 hc        1 WW2      0.044200
     15 H2A         1.6390    0.7090   -0.7540 hc        1 WW2      0.044200
     16 H3          3.1060   -0.0350    1.0880 hc        1 WW2      0.042200
     17 H3A         1.7280   -0.8800    1.9010 hc        1 WW2      0.042200
     18 H4          2.0210    2.1610    1.4000 hc        1 WW2      0.044200
     19 H4A         2.1380    1.3000    2.9870 hc        1 WW2      0.044200
     20 H5         -0.0970    2.3840    2.6680 hc        1 WW2      0.049950
     21 H5A        -0.2390    0.5900    2.8320 hc        1 WW2      0.049950
     22 H6         -0.2900    2.2110    0.1720 h1        1 WW2      0.075700
     23 H7         -5.1530    2.3480    0.4710 hc        1 WW2      0.116700
     24 H7A        -4.3090    0.7890    0.2710 hc        1 WW2      0.116700
     25 H7B        -4.4270    1.9250   -1.1050 hc        1 WW2      0.116700
@<TRIPOS>BOND
     1    1    5 1   
     2    1   10 1   
     3    1   12 1   
     4    1   13 1   
     5    2    4 1   
     6    3    4 2   
     7    4    6 1   
     8    4   11 1   
     9    5    7 1   
    10    5   14 1   
    11    5   15 1   
    12    6   10 1   
    13    7    8 1   
    14    7   16 1   
    15    7   17 1   
    16    8    9 1   
    17    8   18 1   
    18    8   19 1   
    19    9   10 1   
    20    9   20 1   
    21    9   21 1   
    22   10   22 1   
    23   11   23 1   
    24   11   24 1   
    25   11   25 1   
@<TRIPOS>SUBSTRUCTURE
     1 WW2         1 TEMP              0 ****  ****    0 ROOT
