@<TRIPOS>MOLECULE
molecule
   25    25     1     0     0
SMALL
bcc


@<TRIPOS>ATOM
      1 C1           0.0000     0.0000     0.0000 c3         1 WW2      -0.092900
      2 F1          -2.4560     3.8780     0.7780 f          1 WW2      -0.334400
      3 O1          -2.4990     2.5020    -1.3960 o          1 WW2      -0.771300
      4 P1          -2.8150     2.4200     0.0470 p5         1 WW2       1.374300
      5 C2           1.5310     0.0000     0.0000 c3         1 WW2      -0.078400
      6 O2          -1.9380     1.2510     0.7220 os         1 WW2      -0.581200
      7 C3           2.0410     0.0000     1.4420 c3         1 WW2      -0.084400
      8 C4           1.5320     1.2500     2.1630 c3         1 WW2      -0.078400
      9 C5           0.0020     1.2500     2.1640 c3         1 WW2      -0.092900
     10 C6          -0.5090     1.2500     0.7220 c3         1 WW2       0.213100
     11 C7          -4.5870     2.0510     0.2610 c3         1 WW2      -0.275300
     12 H1          -0.3600     0.0030    -1.0220 hc         1 WW2       0.055450
     13 H1A         -0.3600    -0.8840     0.5130 hc         1 WW2       0.055450
     14 H2           1.8910     0.8860    -0.5090 hc         1 WW2       0.047200
     15 H2A          1.8910    -0.8860    -0.5090 hc         1 WW2       0.047200
     16 H3           1.6770    -0.8830     1.9520 hc         1 WW2       0.045200
     17 H3A          3.1240     0.0020     1.4400 hc         1 WW2       0.045200
     18 H4           1.8920     1.2480     3.1850 hc         1 WW2       0.047200
     19 H4A          1.8910     2.1340     1.6500 hc         1 WW2       0.047200
     20 H5          -0.3580     2.1370     2.6730 hc         1 WW2       0.055450
     21 H5A         -0.3580     0.3650     2.6740 hc         1 WW2       0.055450
     22 H6          -0.1430     2.1330     0.2110 h1         1 WW2       0.043700
     23 H7          -4.8200     1.1060    -0.2140 hc         1 WW2       0.086367
     24 H7A         -4.8180     1.9910     1.3180 hc         1 WW2       0.086367
     25 H7B         -5.1770     2.8380    -0.1930 hc         1 WW2       0.086367
@<TRIPOS>BOND
     1     1     5 1
     2     1    10 1
     3     1    12 1
     4     1    13 1
     5     4     2 1
     6     3     4 2
     7     6     4 1
     8     4    11 1
     9     5     7 1
    10     5    14 1
    11     5    15 1
    12     6    10 1
    13     7     8 1
    14     7    16 1
    15     7    17 1
    16     9     8 1
    17     8    18 1
    18     8    19 1
    19    10     9 1
    20     9    20 1
    21     9    21 1
    22    10    22 1
    23    11    23 1
    24    11    24 1
    25    11    25 1
@<TRIPOS>SUBSTRUCTURE
     1 WW2         1 TEMP              0 ****  ****    0 ROOT
