@<TRIPOS>MOLECULE
WW3
   38    39     1     0     0
SMALL
bcc


@<TRIPOS>ATOM
      1 O9           0.0000     0.0000     0.0000 o          1 WW3      -0.501300
      2 S7           1.4210     0.0000     0.0000 sy         1 WW3       0.930200
      3 O8           2.1980     0.0000     1.1890 o          1 WW3      -0.501300
      4 N10          1.8880    -1.3340    -0.8640 nz         1 WW3      -0.133500
      5 C3           1.9190     1.4180    -0.9200 ca         1 WW3      -0.257500
      6 C2           1.0580     1.9720    -1.8510 ca         1 WW3       0.022500
      7 C4           3.1670     1.9750    -0.7050 ca         1 WW3       0.022500
      8 C5           3.5630     3.0850    -1.4220 ca         1 WW3      -0.136000
      9 C6           2.7020     3.6450    -2.3670 ca         1 WW3       0.253400
     10 C1           1.4430     3.0820    -2.5750 ca         1 WW3      -0.136000
     11 N11          3.0900     4.7500    -3.0830 ne         1 WW3      -0.341400
     12 N12          4.2550     5.2690    -2.8870 n2         1 WW3      -0.096700
     13 N13          4.6510     6.3960    -3.6190 nh         1 WW3      -0.122700
     14 C16          5.9260     6.9360    -3.3810 c3         1 WW3       0.151300
     15 C15          5.8050     8.4120    -2.9200 c3         1 WW3      -0.044900
     16 C17          5.3840     9.2550    -4.1000 c3         1 WW3      -0.029900
     17 C18          3.8620     9.4480    -4.2120 c3         1 WW3      -0.029900
     18 C19          3.0740     8.1650    -3.9500 c3         1 WW3      -0.044900
     19 C14          3.7130     6.9570    -4.6080 c3         1 WW3       0.151300
     20 H1           2.8810    -1.3220    -0.9850 hn         1 WW3       0.311467
     21 H2           1.6220    -2.1620    -0.3690 hn         1 WW3       0.311467
     22 H3           0.0780     1.5370    -2.0070 ha         1 WW3       0.122000
     23 H4           3.8320     1.5420     0.0320 ha         1 WW3       0.122000
     24 H5           4.5130     3.5580    -1.2070 ha         1 WW3       0.142000
     25 H6           0.7960     3.4740    -3.3500 ha         1 WW3       0.142000
     26 H7           6.4200     6.3590    -2.6080 h1         1 WW3       0.042950
     27 H8           6.5080     6.8930    -4.2940 h1         1 WW3       0.042950
     28 H9           5.0610     8.4880    -2.1370 hc         1 WW3       0.030450
     29 H10          6.7640     8.7570    -2.5520 hc         1 WW3       0.030450
     30 H11          5.7380     8.7790    -5.0070 hc         1 WW3       0.021950
     31 H12          5.8490    10.2290    -4.0100 hc         1 WW3       0.021950
     32 H13          3.5540    10.1970    -3.4920 hc         1 WW3       0.021950
     33 H14          3.6300     9.7990    -5.2100 hc         1 WW3       0.021950
     34 H15          3.0260     7.9960    -2.8810 hc         1 WW3       0.030450
     35 H16          2.0700     8.2850    -4.3380 hc         1 WW3       0.030450
     36 H17          4.2510     7.2620    -5.4980 h1         1 WW3       0.042950
     37 H18          2.9540     6.2260    -4.8560 h1         1 WW3       0.042950
     38 H103         1.4350    -1.3290    -1.7560 hn         1 WW3       0.311467
@<TRIPOS>BOND
     1     1     2 2   
     2     2     3 2   
     3     2     4 1   
     4     2     5 1   
     5     4    20 1   
     6     4    21 1   
     7     4    38 1   
     8     5     6 ar  
     9     5     7 ar  
    10     6    10 ar  
    11     6    22 1   
    12     7     8 ar  
    13     7    23 1   
    14     8     9 ar  
    15     8    24 1   
    16     9    10 ar  
    17     9    11 1   
    18    10    25 1   
    19    11    12 2   
    20    12    13 1   
    21    13    14 1   
    22    13    19 1   
    23    14    15 1   
    24    14    26 1   
    25    14    27 1   
    26    15    16 1   
    27    15    28 1   
    28    15    29 1   
    29    16    17 1   
    30    16    30 1   
    31    16    31 1   
    32    17    18 1   
    33    17    32 1   
    34    17    33 1   
    35    18    19 1   
    36    18    34 1   
    37    18    35 1   
    38    19    36 1   
    39    19    37 1   
@<TRIPOS>SUBSTRUCTURE
     1 WW3         1 TEMP              0 ****  ****    0 ROOT
