@<TRIPOS>MOLECULE
molecule
   38    39     1     0     0
SMALL
bcc


@<TRIPOS>ATOM
      1 O9           0.0000     0.0000     0.0000 o          1 WW3      -0.526300
      2 S7           1.4210     0.0000     0.0000 sy         1 WW3       1.221200
      3 O8           2.1980     0.0000     1.1890 o          1 WW3      -0.526300
      4 N10          1.8880    -1.3340    -0.8640 nz         1 WW3      -0.804500
      5 C3           1.9190     1.4180    -0.9200 ca         1 WW3      -0.368500
      6 C2           1.0580     1.9720    -1.8510 ca         1 WW3      -0.018500
      7 C4           3.1670     1.9750    -0.7050 ca         1 WW3      -0.018500
      8 C5           3.5630     3.0850    -1.4220 ca         1 WW3      -0.152500
      9 C6           2.7020     3.6450    -2.3670 ca         1 WW3       0.285400
     10 C1           1.4430     3.0820    -2.5750 ca         1 WW3      -0.152500
     11 N11          3.0900     4.7500    -3.0830 ne         1 WW3      -0.396400
     12 N12          4.2550     5.2690    -2.8870 n2         1 WW3       0.012300
     13 N13          4.6510     6.3960    -3.6190 nh         1 WW3      -0.461700
     14 C16          5.9260     6.9360    -3.3810 c3         1 WW3       0.217800
     15 C15          5.8050     8.4120    -2.9200 c3         1 WW3      -0.100400
     16 C17          5.3840     9.2550    -4.1000 c3         1 WW3      -0.084400
     17 C18          3.8620     9.4480    -4.2120 c3         1 WW3      -0.084400
     18 C19          3.0740     8.1650    -3.9500 c3         1 WW3      -0.100400
     19 C14          3.7130     6.9570    -4.6080 c3         1 WW3       0.217800
     20 H1           1.4430    -1.3230    -1.7600 hn         1 WW3       0.489467
     21 H2           2.8810    -1.3220    -0.9840 hn         1 WW3       0.489467
     22 H3           0.0780     1.5370    -2.0060 ha         1 WW3       0.153000
     23 H4           3.8320     1.5420     0.0320 ha         1 WW3       0.153000
     24 H5           4.5130     3.5580    -1.2070 ha         1 WW3       0.173500
     25 H6           0.7960     3.4740    -3.3500 ha         1 WW3       0.173500
     26 H7           6.4200     6.3590    -2.6080 h1         1 WW3       0.070700
     27 H8           6.5080     6.8930    -4.2940 h1         1 WW3       0.070700
     28 H9           6.7640     8.7570    -2.5520 hc         1 WW3       0.059700
     29 H10          5.0610     8.4880    -2.1370 hc         1 WW3       0.059700
     30 H11          5.7380     8.7790    -5.0070 hc         1 WW3       0.049450
     31 H12          5.8490    10.2290    -4.0100 hc         1 WW3       0.049450
     32 H13          3.5540    10.1970    -3.4920 hc         1 WW3       0.049450
     33 H14          3.6300     9.7990    -5.2100 hc         1 WW3       0.049450
     34 H15          2.0700     8.2850    -4.3380 hc         1 WW3       0.059700
     35 H16          3.0260     7.9960    -2.8810 hc         1 WW3       0.059700
     36 H17          4.2510     7.2620    -5.4980 h1         1 WW3       0.070700
     37 H18          2.9540     6.2260    -4.8560 h1         1 WW3       0.070700
     38 H103         1.6300    -2.1620    -0.3640 hn         1 WW3       0.489467
@<TRIPOS>BOND
     1    18    19 1
     2    18    17 1
     3    19    13 1
     4    17    16 1
     5    13    12 1
     6    13    14 1
     7    11    12 2
     8    11     9 1
     9    15    16 1
    10    15    14 1
    11     9    10 ar
    12     9     8 ar
    13    10     6 ar
    14     8     7 ar
    15     6     5 ar
    16     7     5 ar
    17     5     2 1
    18     4     2 1
    19     1     2 2
    20     2     3 2
    21     4    20 1
    22     4    21 1
    23     6    22 1
    24     7    23 1
    25     8    24 1
    26    10    25 1
    27    14    26 1
    28    14    27 1
    29    15    28 1
    30    15    29 1
    31    16    30 1
    32    16    31 1
    33    17    32 1
    34    17    33 1
    35    18    34 1
    36    18    35 1
    37    19    36 1
    38    19    37 1
    39    38     4 1
@<TRIPOS>SUBSTRUCTURE
     1 WW3         1 TEMP              0 ****  ****    0 ROOT
