@<TRIPOS>MOLECULE
WW7
   44    45     1     0     0
SMALL
bcc


@<TRIPOS>ATOM
      1 S1           0.0000     0.0000     0.0000 sy         1 WW7       1.054200
      2 O1           1.4200     0.0000     0.0000 o          1 WW7      -0.578800
      3 O2          -0.8220     0.0000     1.1590 o          1 WW7      -0.578800
      4 N1          -0.4500     1.3330    -0.8710 n7         1 WW7      -0.598100
      5 C4          -1.2630    -3.6830    -2.3670 ca         1 WW7      -0.027000
      6 C3          -1.8010    -3.4080    -1.1480 ca         1 WW7      -0.138000
      7 C2          -1.4100    -2.2790    -0.4300 ca         1 WW7       0.034000
      8 C1          -0.4780    -1.4200    -0.9270 ca         1 WW7      -0.158500
      9 C9           0.0950    -1.6700    -2.1840 ca         1 WW7       0.054000
     10 C10         -0.2980    -2.8200    -2.9120 ca         1 WW7      -0.064000
     11 C5           0.2820    -3.0720    -4.1680 ca         1 WW7      -0.017600
     12 C6           1.2140    -2.2120    -4.6650 ca         1 WW7      -0.103000
     13 C7           1.6040    -1.0840    -3.9450 ca         1 WW7      -0.064000
     14 C8           1.0640    -0.8090    -2.7280 ca         1 WW7      -0.127000
     15 C11         -1.8690     1.6050    -1.1140 c3         1 WW7       0.233800
     16 C12         -2.0160     2.9500    -1.8280 c3         1 WW7      -0.038400
     17 C14         -3.6450     4.5780    -2.7950 c3         1 WW7      -0.017400
     18 C13         -3.4960     3.2340    -2.0800 c3         1 WW7      -0.020400
     19 C15         -5.1250     4.8640    -3.0480 c3         1 WW7      -0.036400
     20 C16         -5.2730     6.2080    -3.7620 c3         1 WW7      -0.054200
     21 N2          -6.6950     6.4800    -4.0050 nz         1 WW7       0.087400
     22 HN1          0.2450     1.9730    -1.1990 hn         1 WW7       0.351800
     23 H4          -1.5760    -4.5640    -2.9140 ha         1 WW7       0.118000
     24 H3          -2.5450    -4.0750    -0.7300 ha         1 WW7       0.113000
     25 H2          -1.8540    -2.0830     0.5390 ha         1 WW7       0.128000
     26 H6           1.6590    -2.4090    -5.6330 ha         1 WW7       0.118000
     27 H7           2.3470    -0.4160    -4.3630 ha         1 WW7       0.107000
     28 H8           1.3780     0.0720    -2.1800 ha         1 WW7       0.134000
     29 H111        -2.3970     1.6390    -0.1690 h1         1 WW7       0.017200
     30 H112        -2.2860     0.8200    -1.7330 h1         1 WW7       0.017200
     31 H121        -1.5980     3.7350    -1.2090 hc         1 WW7       0.023200
     32 H122        -1.4880     2.9160    -2.7740 hc         1 WW7       0.023200
     33 H141        -3.2270     5.3640    -2.1770 hc         1 WW7       0.028200
     34 H142        -3.1170     4.5440    -3.7400 hc         1 WW7       0.028200
     35 H131        -4.0230     3.2680    -1.1340 hc         1 WW7       0.022200
     36 H132        -3.9140     2.4490    -2.6980 hc         1 WW7       0.022200
     37 H151        -5.6530     4.8970    -2.1030 hc         1 WW7       0.034200
     38 H152        -5.5430     4.0790    -3.6670 hc         1 WW7       0.034200
     39 H161        -4.8560     6.9930    -3.1430 hx         1 WW7       0.086200
     40 H162        -4.7450     6.1750    -4.7080 hx         1 WW7       0.086200
     41 HN21        -6.7910     7.3600    -4.4720 hn         1 WW7       0.223467
     42 HN22        -7.1830     6.5110    -3.1320 hn         1 WW7       0.223467
     43 Cl1         -0.1890    -4.4710    -5.0820 cl         1 WW7      -0.007400
     44 H23         -7.0810     5.7550    -4.5770 hn         1 WW7       0.223467
@<TRIPOS>BOND
     1     1     2 2   
     2     1     3 2   
     3     1     4 1   
     4     1     8 1   
     5     4    15 1   
     6     4    22 1   
     7     5     6 ar  
     8     5    10 ar  
     9     5    23 1   
    10     6     7 ar  
    11     6    24 1   
    12     7     8 ar  
    13     7    25 1   
    14     8     9 ar  
    15     9    10 ar  
    16     9    14 ar  
    17    10    11 ar  
    18    11    12 ar  
    19    11    43 1   
    20    12    13 ar  
    21    12    26 1   
    22    13    14 ar  
    23    13    27 1   
    24    14    28 1   
    25    15    16 1   
    26    15    29 1   
    27    15    30 1   
    28    16    18 1   
    29    16    31 1   
    30    16    32 1   
    31    17    18 1   
    32    17    19 1   
    33    17    33 1   
    34    17    34 1   
    35    18    35 1   
    36    18    36 1   
    37    19    20 1   
    38    19    37 1   
    39    19    38 1   
    40    20    21 1   
    41    20    39 1   
    42    20    40 1   
    43    21    41 1   
    44    21    42 1   
    45    21    44 1   
@<TRIPOS>SUBSTRUCTURE
     1 WW7         1 TEMP              0 ****  ****    0 ROOT
