@<TRIPOS>MOLECULE
molecule
   82    87     1     0     0
SMALL
bcc


@<TRIPOS>ATOM
      1 C1           0.0000     0.0000     0.0000 ca         1 WW8      -0.148000
      2 C2           1.3780     0.0000     0.0000 ca         1 WW8       0.059400
      3 Cl3          2.2370     0.0020    -1.5080 cl         1 WW8      -0.104400
      4 C4           2.0860     0.0000     1.1960 ca         1 WW8      -0.153000
      5 C5           1.4260    -0.0020     2.3910 ca         1 WW8      -0.055000
      6 C6           0.0310    -0.0030     2.4150 ca         1 WW8      -0.104800
      7 C7          -0.6930    -0.0010     1.2090 ca         1 WW8      -0.023200
      8 N8          -2.0340    -0.0020     1.5150 na         1 WW8      -0.185400
      9 C9          -2.2100    -0.0030     2.8860 cc         1 WW8      -0.115300
     10 C10         -3.4980    -0.0050     3.5790 c          1 WW8       0.702300
     11 O11         -3.5340    -0.0060     4.7960 o          1 WW8      -0.556100
     12 N12         -4.6450    -0.0050     2.8700 n          1 WW8      -0.500800
     13 C13         -6.0050    -0.0070     3.4380 c3         1 WW8       0.111000
     14 C14         -6.8970    -0.6180     2.3280 c3         1 WW8       0.150500
     15 N15         -8.2890    -0.1690     2.4640 n3         1 WW8      -0.721600
     16 C16         -8.8570    -0.6010     3.7480 c3         1 WW8       0.156800
     17 C17        -10.2070     0.0870     3.9650 c3         1 WW8      -0.080400
     18 C18        -10.7990    -0.3620     5.3030 c3         1 WW8       0.161800
     19 N19        -12.0950     0.2980     5.5110 n3         1 WW8      -0.730600
     20 C20        -13.0810    -0.1560     4.5230 c3         1 WW8       0.150600
     21 C21        -12.5820     0.0800     6.8800 c3         1 WW8       0.150600
     22 C22         -9.1080    -0.6440     1.3410 c3         1 WW8       0.148100
     23 C23         -6.2470    -0.0310     1.0470 c3         1 WW8      -0.088400
     24 C24         -4.7450     0.0020     1.4040 c3         1 WW8       0.080000
     25 C25         -0.9640    -0.0040     3.4980 cd         1 WW8       0.014600
     26 C26         -0.6920    -0.0060     4.9420 cd         1 WW8      -0.156400
     27 C27         -0.5370    -1.1160     5.7610 cc         1 WW8       0.400800
     28 C28         -0.6140    -2.5330     5.3410 ca         1 WW8      -0.092500
     29 C29          0.2050    -3.4890     5.9430 ca         1 WW8      -0.107000
     30 C30          0.1290    -4.8080     5.5480 ca         1 WW8      -0.136000
     31 C31         -0.7580    -5.1850     4.5550 ca         1 WW8      -0.131000
     32 C32         -1.5730    -4.2420     3.9520 ca         1 WW8      -0.136000
     33 C33         -1.5090    -2.9210     4.3440 ca         1 WW8      -0.107000
     34 N34         -0.3030    -0.6660     7.0060 nc         1 WW8      -0.686000
     35 C35         -0.3040     0.6390     7.0070 cd         1 WW8       0.404400
     36 N36         -0.5340     1.0940     5.7570 na         1 WW8      -0.164900
     37 C37         -0.6060     2.4970     5.3440 c3         1 WW8       0.092600
     38 C38         -2.0430     2.9500     5.3470 ca         1 WW8      -0.108300
     39 C39         -2.5930     3.4980     6.4910 ca         1 WW8      -0.097000
     40 C40         -3.9120     3.9130     6.4940 ca         1 WW8      -0.120500
     41 C41         -4.6820     3.7780     5.3530 ca         1 WW8       0.041400
     42 Cl42        -6.3380     4.2990     5.3570 cl         1 WW8      -0.107400
     43 C43         -4.1320     3.2280     4.2090 ca         1 WW8      -0.120500
     44 C44         -2.8110     2.8190     4.2050 ca         1 WW8      -0.097000
     45 H1          -0.5420    -0.0760    -0.9350 ha         1 WW8       0.141000
     46 H4           3.1690     0.0000     1.1790 ha         1 WW8       0.148000
     47 H5           1.9850    -0.0020     3.3190 ha         1 WW8       0.148000
     48 HN8         -2.7750    -0.0020     0.8420 hn         1 WW8       0.310700
     49 H13         -6.0400    -0.6230     4.3280 h1         1 WW8       0.070700
     50 H13A        -6.3210     1.0050     3.6590 h1         1 WW8       0.070700
     51 H14         -6.8290    -1.6990     2.3320 h1         1 WW8       0.042700
     52 H16         -8.9970    -1.6760     3.7380 h1         1 WW8       0.037200
     53 H16A        -8.1810    -0.3320     4.5510 h1         1 WW8       0.037200
     54 H17        -10.0670     1.1610     3.9750 hc         1 WW8       0.057700
     55 H17A       -10.8830    -0.1820     3.1630 hc         1 WW8       0.057700
     56 H18        -10.9390    -1.4370     5.2940 h1         1 WW8       0.033200
     57 H18A       -10.1240    -0.0930     6.1060 h1         1 WW8       0.033200
     58 H20        -13.0280     0.4750     3.6430 h1         1 WW8       0.031867
     59 H20A       -14.0750    -0.0960     4.9500 h1         1 WW8       0.031867
     60 H20B       -12.8690    -1.1810     4.2450 h1         1 WW8       0.031867
     61 H21        -13.5390     0.5730     7.0050 h1         1 WW8       0.031867
     62 H21A       -12.6960    -0.9820     7.0580 h1         1 WW8       0.031867
     63 H21B       -11.8700     0.4900     7.5860 h1         1 WW8       0.031867
     64 H22         -9.8540     0.1020     1.0970 h1         1 WW8       0.035367
     65 H22A        -8.4740    -0.8160     0.4790 h1         1 WW8       0.035367
     66 H22B        -9.5990    -1.5700     1.6180 h1         1 WW8       0.035367
     67 H23         -6.4230    -0.6800     0.1980 hc         1 WW8       0.065200
     68 H23A        -6.6160     0.9700     0.8570 hc         1 WW8       0.065200
     69 H24         -4.2520    -0.8730     0.9970 h1         1 WW8       0.040700
     70 H24A        -4.2930     0.9040     1.0090 h1         1 WW8       0.040700
     71 H29          0.9000    -3.1950     6.7210 ha         1 WW8       0.138000
     72 H30          0.7640    -5.5500     6.0160 ha         1 WW8       0.124500
     73 H31         -0.8130    -6.2220     4.2450 ha         1 WW8       0.123000
     74 H32         -2.2660    -4.5440     3.1770 ha         1 WW8       0.124500
     75 H33         -2.1470    -2.1840     3.8710 ha         1 WW8       0.138000
     76 H35         -0.1390     1.2630     7.8780 h5         1 WW8       0.061100
     77 H37         -0.0340     3.1070     6.0340 h1         1 WW8       0.069200
     78 H37A        -0.1970     2.6010     4.3460 h1         1 WW8       0.069200
     79 H39         -1.9890     3.6040     7.3840 ha         1 WW8       0.137000
     80 H40         -4.3420     4.3430     7.3910 ha         1 WW8       0.144000
     81 H43         -4.7340     3.1240     3.3140 ha         1 WW8       0.144000
     82 H44         -2.3810     2.3890     3.3090 ha         1 WW8       0.137000
@<TRIPOS>BOND
     1     1     2 ar
     2     1     7 ar
     3     2     3 1
     4     2     4 ar
     5     4     5 ar
     6     5     6 ar
     7     6     7 ar
     8     6    25 1
     9     7     8 1
    10     8     9 1
    11     9    10 1
    12     9    25 2
    13    10    11 2
    14    10    12 1
    15    12    13 1
    16    12    24 1
    17    13    14 1
    18    14    15 1
    19    14    23 1
    20    15    16 1
    21    15    22 1
    22    16    17 1
    23    17    18 1
    24    18    19 1
    25    19    20 1
    26    19    21 1
    27    23    24 1
    28    25    26 1
    29    26    27 2
    30    26    36 1
    31    27    28 1
    32    27    34 1
    33    28    29 ar
    34    28    33 ar
    35    29    30 ar
    36    30    31 ar
    37    31    32 ar
    38    32    33 ar
    39    34    35 2
    40    35    36 1
    41    36    37 1
    42    37    38 1
    43    38    39 ar
    44    38    44 ar
    45    39    40 ar
    46    40    41 ar
    47    41    42 1
    48    41    43 ar
    49    43    44 ar
    50     1    45 1
    51     4    46 1
    52     5    47 1
    53     8    48 1
    54    13    49 1
    55    13    50 1
    56    14    51 1
    57    16    52 1
    58    16    53 1
    59    17    54 1
    60    17    55 1
    61    18    56 1
    62    18    57 1
    63    20    58 1
    64    20    59 1
    65    20    60 1
    66    21    61 1
    67    21    62 1
    68    21    63 1
    69    22    64 1
    70    22    65 1
    71    22    66 1
    72    23    67 1
    73    23    68 1
    74    24    69 1
    75    24    70 1
    76    29    71 1
    77    30    72 1
    78    31    73 1
    79    32    74 1
    80    33    75 1
    81    35    76 1
    82    37    77 1
    83    37    78 1
    84    39    79 1
    85    40    80 1
    86    43    81 1
    87    44    82 1
@<TRIPOS>SUBSTRUCTURE
     1 WW8         1 TEMP              0 ****  ****    0 ROOT
