@<TRIPOS>MOLECULE
WW8
   82    87     1     0     0
SMALL
bcc


@<TRIPOS>ATOM
      1 C1           0.0000     0.0000     0.0000 ca         1 WW8      -0.113000
      2 C2           1.3780     0.0000     0.0000 ca         1 WW8      -0.003600
      3 Cl3          2.2370     0.0020    -1.5080 cl         1 WW8      -0.027400
      4 C4           2.0860     0.0000     1.1960 ca         1 WW8      -0.134000
      5 C5           1.4260    -0.0020     2.3910 ca         1 WW8      -0.018000
      6 C6           0.0310    -0.0030     2.4150 ca         1 WW8      -0.111800
      7 C7          -0.6930    -0.0010     1.2090 ca         1 WW8      -0.200200
      8 N8          -2.0340    -0.0020     1.5150 na         1 WW8       0.319600
      9 C9          -2.2100    -0.0030     2.8860 cc         1 WW8      -0.321300
     10 C10         -3.4980    -0.0050     3.5790 c          1 WW8       0.646300
     11 O11         -3.5340    -0.0060     4.7960 o          1 WW8      -0.607100
     12 N12         -4.6450    -0.0050     2.8700 n          1 WW8      -0.173800
     13 C13         -6.0050    -0.0070     3.4380 c3         1 WW8       0.056000
     14 C14         -6.8970    -0.6180     2.3280 c3         1 WW8       0.113500
     15 N15         -8.2890    -0.1690     2.4640 n3         1 WW8      -0.527600
     16 C16         -8.8570    -0.6010     3.7480 c3         1 WW8       0.142800
     17 C17        -10.2070     0.0870     3.9650 c3         1 WW8      -0.041400
     18 C18        -10.7990    -0.3620     5.3030 c3         1 WW8       0.153800
     19 N19        -12.0950     0.2980     5.5110 n3         1 WW8      -0.544600
     20 C20        -13.0810    -0.1560     4.5230 c3         1 WW8       0.182100
     21 C21        -12.5820     0.0800     6.8800 c3         1 WW8       0.182100
     22 C22         -9.1080    -0.6440     1.3410 c3         1 WW8       0.168100
     23 C23         -6.2470    -0.0310     1.0470 c3         1 WW8      -0.030400
     24 C24         -4.7450     0.0020     1.4040 c3         1 WW8       0.032000
     25 C25         -0.9640    -0.0040     3.4980 cd         1 WW8       0.055600
     26 C26         -0.6920    -0.0060     4.9420 cd         1 WW8      -0.324400
     27 C27         -0.5370    -1.1160     5.7610 cc         1 WW8       0.377800
     28 C28         -0.6140    -2.5330     5.3410 ca         1 WW8      -0.084500
     29 C29          0.2050    -3.4890     5.9430 ca         1 WW8      -0.095000
     30 C30          0.1290    -4.8080     5.5480 ca         1 WW8      -0.108500
     31 C31         -0.7580    -5.1850     4.5550 ca         1 WW8      -0.109000
     32 C32         -1.5730    -4.2420     3.9520 ca         1 WW8      -0.108500
     33 C33         -1.5090    -2.9210     4.3440 ca         1 WW8      -0.095000
     34 N34         -0.3030    -0.6660     7.0060 nc         1 WW8      -0.602000
     35 C35         -0.3040     0.6390     7.0070 cd         1 WW8       0.216400
     36 N36         -0.5340     1.0940     5.7570 na         1 WW8       0.321100
     37 C37         -0.6060     2.4970     5.3440 c3         1 WW8       0.014600
     38 C38         -2.0430     2.9500     5.3470 ca         1 WW8      -0.117300
     39 C39         -2.5930     3.4980     6.4910 ca         1 WW8      -0.070500
     40 C40         -3.9120     3.9130     6.4940 ca         1 WW8      -0.098500
     41 C41         -4.6820     3.7780     5.3530 ca         1 WW8      -0.020600
     42 Cl42        -6.3380     4.2990     5.3570 cl         1 WW8      -0.023400
     43 C43         -4.1320     3.2280     4.2090 ca         1 WW8      -0.098500
     44 C44         -2.8110     2.8190     4.2050 ca         1 WW8      -0.070500
     45 H1          -0.5420    -0.0760    -0.9350 ha         1 WW8       0.113000
     46 H4           3.1690     0.0000     1.1790 ha         1 WW8       0.118000
     47 H5           1.9850    -0.0020     3.3190 ha         1 WW8       0.111000
     48 HN8         -2.7750    -0.0020     0.8420 hn         1 WW8       0.145700
     49 H13         -6.0400    -0.6230     4.3280 h1         1 WW8       0.041200
     50 H13A        -6.3210     1.0050     3.6590 h1         1 WW8       0.041200
     51 H14         -6.8290    -1.6990     2.3320 h1         1 WW8       0.023700
     52 H16         -8.9970    -1.6760     3.7380 h1         1 WW8       0.015200
     53 H16A        -8.1810    -0.3320     4.5510 h1         1 WW8       0.015200
     54 H17        -10.0670     1.1610     3.9750 hc         1 WW8       0.030700
     55 H17A       -10.8830    -0.1820     3.1630 hc         1 WW8       0.030700
     56 H18        -10.9390    -1.4370     5.2940 h1         1 WW8       0.008700
     57 H18A       -10.1240    -0.0930     6.1060 h1         1 WW8       0.008700
     58 H20        -13.0280     0.4750     3.6430 h1         1 WW8       0.001200
     59 H20A       -14.0750    -0.0960     4.9500 h1         1 WW8       0.001200
     60 H20B       -12.8690    -1.1810     4.2450 h1         1 WW8       0.001200
     61 H21        -13.5390     0.5730     7.0050 h1         1 WW8       0.001200
     62 H21A       -12.6960    -0.9820     7.0580 h1         1 WW8       0.001200
     63 H21B       -11.8700     0.4900     7.5860 h1         1 WW8       0.001200
     64 H22         -9.8540     0.1020     1.0970 h1         1 WW8       0.007033
     65 H22A        -8.4740    -0.8160     0.4790 h1         1 WW8       0.007033
     66 H22B        -9.5990    -1.5700     1.6180 h1         1 WW8       0.007033
     67 H23         -6.4230    -0.6800     0.1980 hc         1 WW8       0.035200
     68 H23A        -6.6160     0.9700     0.8570 hc         1 WW8       0.035200
     69 H24         -4.2520    -0.8730     0.9970 h1         1 WW8       0.014700
     70 H24A        -4.2930     0.9040     1.0090 h1         1 WW8       0.014700
     71 H29          0.9000    -3.1950     6.7210 ha         1 WW8       0.115500
     72 H30          0.7640    -5.5500     6.0160 ha         1 WW8       0.097000
     73 H31         -0.8130    -6.2220     4.2450 ha         1 WW8       0.097000
     74 H32         -2.2660    -4.5440     3.1770 ha         1 WW8       0.097000
     75 H33         -2.1470    -2.1840     3.8710 ha         1 WW8       0.115500
     76 H35         -0.1390     1.2630     7.8780 h5         1 WW8       0.019100
     77 H37         -0.0340     3.1070     6.0340 h1         1 WW8       0.039700
     78 H37A        -0.1970     2.6010     4.3460 h1         1 WW8       0.039700
     79 H39         -1.9890     3.6040     7.3840 ha         1 WW8       0.110500
     80 H40         -4.3420     4.3430     7.3910 ha         1 WW8       0.114500
     81 H43         -4.7340     3.1240     3.3140 ha         1 WW8       0.114500
     82 H44         -2.3810     2.3890     3.3090 ha         1 WW8       0.110500
@<TRIPOS>BOND
     1     1     2 ar  
     2     1     7 ar  
     3     1    45 1   
     4     2     3 1   
     5     2     4 ar  
     6     4     5 ar  
     7     4    46 1   
     8     5     6 ar  
     9     5    47 1   
    10     6     7 ar  
    11     6    25 1   
    12     7     8 1   
    13     8     9 1   
    14     8    48 1   
    15     9    10 1   
    16     9    25 2   
    17    10    11 2   
    18    10    12 1   
    19    12    13 1   
    20    12    24 1   
    21    13    14 1   
    22    13    49 1   
    23    13    50 1   
    24    14    15 1   
    25    14    23 1   
    26    14    51 1   
    27    15    16 1   
    28    15    22 1   
    29    16    17 1   
    30    16    52 1   
    31    16    53 1   
    32    17    18 1   
    33    17    54 1   
    34    17    55 1   
    35    18    19 1   
    36    18    56 1   
    37    18    57 1   
    38    19    20 1   
    39    19    21 1   
    40    20    58 1   
    41    20    59 1   
    42    20    60 1   
    43    21    61 1   
    44    21    62 1   
    45    21    63 1   
    46    22    64 1   
    47    22    65 1   
    48    22    66 1   
    49    23    24 1   
    50    23    67 1   
    51    23    68 1   
    52    24    69 1   
    53    24    70 1   
    54    25    26 1   
    55    26    27 2   
    56    26    36 1   
    57    27    28 1   
    58    27    34 1   
    59    28    29 ar  
    60    28    33 ar  
    61    29    30 ar  
    62    29    71 1   
    63    30    31 ar  
    64    30    72 1   
    65    31    32 ar  
    66    31    73 1   
    67    32    33 ar  
    68    32    74 1   
    69    33    75 1   
    70    34    35 2   
    71    35    36 1   
    72    35    76 1   
    73    36    37 1   
    74    37    38 1   
    75    37    77 1   
    76    37    78 1   
    77    38    39 ar  
    78    38    44 ar  
    79    39    40 ar  
    80    39    79 1   
    81    40    41 ar  
    82    40    80 1   
    83    41    42 1   
    84    41    43 ar  
    85    43    44 ar  
    86    43    81 1   
    87    44    82 1   
@<TRIPOS>SUBSTRUCTURE
     1 WW8         1 TEMP              0 ****  ****    0 ROOT
