@<TRIPOS>MOLECULE
molecule
   58    59     1     0     0
SMALL
bcc


@<TRIPOS>ATOM
      1 O1B          0.0000     0.0000     0.0000 o          1 WWF      -0.606167
      2 PB           1.6100     0.0000     0.0000 p5         1 WWF       1.180900
      3 O2B          2.1470     0.0000     1.5170 o          1 WWF      -0.606167
      4 O3B          2.1030     1.2090    -0.6980 o          1 WWF      -0.606167
      5 O3A          2.1470    -1.3140    -0.7590 os         1 WWF      -0.630800
      6 PA           3.7060    -1.0650    -1.0760 p5         1 WWF       1.277800
      7 O1A          3.8450    -0.0300    -2.3010 o          1 WWF      -0.789500
      8 O2A          4.3690    -0.5040     0.1220 o          1 WWF      -0.789500
      9 O5G          4.4030    -2.4610    -1.4710 os         1 WWF      -0.550200
     10 C5B          5.7990    -2.1970    -1.6250 c3         1 WWF       0.159400
     11 C5A          6.5240    -3.4900    -2.0020 c3         1 WWF       0.017900
     12 C5           7.9970    -3.2120    -2.1630 cc         1 WWF      -0.061400
     13 C4           8.9950    -3.2610    -1.2450 cd         1 WWF      -0.077600
     14 C4A          8.7090    -3.6400     0.1860 c3         1 WWF      -0.046800
     15 S1           8.9140    -2.7230    -3.6170 ss         1 WWF      -0.161800
     16 C2          10.4820    -2.6380    -2.8760 cc         1 WWF      -0.321700
     17 C8          11.8060    -2.2760    -3.4990 c3         1 WWF       0.289400
     18 O9          11.6700    -1.0570    -4.2300 oh         1 WWF      -0.616800
     19 C9          12.2450    -3.3940    -4.4480 c3         1 WWF      -0.066400
     20 C10         13.4850    -2.9450    -5.2230 c3         1 WWF      -0.079700
     21 C11         14.5830    -2.5370    -4.2400 c3         1 WWF      -0.092100
     22 C12         13.9850    -4.0990    -6.0960 c3         1 WWF      -0.092100
     23 N3          10.2200    -2.9760    -1.6340 na         1 WWF       0.027900
     24 C35         11.3120    -3.0240    -0.6590 c3         1 WWF       0.077600
     25 C5'         11.7550    -4.4520    -0.4710 ca         1 WWF      -0.392900
     26 C6'         11.0330    -5.3190     0.3240 ca         1 WWF       0.479200
     27 N1'         11.4520    -6.5680     0.4660 nb         1 WWF      -0.764000
     28 C2'         12.5450    -6.9900    -0.1380 ca         1 WWF       0.697300
     29 C2A         12.9830    -8.4200     0.0540 c3         1 WWF      -0.119400
     30 N3'         13.2650    -6.1980    -0.9060 nb         1 WWF      -0.797000
     31 C4'         12.9050    -4.9330    -1.1010 ca         1 WWF       0.728200
     32 N4'         13.6640    -4.1010    -1.9090 nv         1 WWF      -1.046500
     33 H5B1         6.2000    -1.8170    -0.6920 h1         1 WWF       0.056700
     34 H5B2         5.9440    -1.4610    -2.4060 h1         1 WWF       0.056700
     35 H5A1         6.3800    -4.2270    -1.2200 hc         1 WWF       0.049700
     36 H5A2         6.1240    -3.8700    -2.9340 hc         1 WWF       0.049700
     37 H4A1         8.5990    -4.7160     0.2590 hc         1 WWF       0.054700
     38 H4A2         7.7930    -3.1610     0.5100 hc         1 WWF       0.054700
     39 H4A3         9.5290    -3.3180     0.8160 hc         1 WWF       0.054700
     40 H8          12.5490    -2.1500    -2.7210 h1         1 WWF       0.015700
     41 H9          11.3840    -0.3720    -3.6490 ho         1 WWF       0.411000
     42 H9C1        11.4440    -3.6140    -5.1430 hc         1 WWF       0.056700
     43 H9C2        12.4800    -4.2830    -3.8740 hc         1 WWF       0.056700
     44 H10         13.2310    -2.1000    -5.8520 hc         1 WWF       0.071700
     45 H111        15.3320    -1.9510    -4.7580 hc         1 WWF       0.027867
     46 H112        15.0440    -3.4250    -3.8240 hc         1 WWF       0.027867
     47 H113        14.1510    -1.9470    -3.4400 hc         1 WWF       0.027867
     48 H121        13.2280    -4.3510    -6.8300 hc         1 WWF       0.027867
     49 H122        14.8940    -3.8000    -6.6040 hc         1 WWF       0.027867
     50 H123        14.1860    -4.9620    -5.4740 hc         1 WWF       0.027867
     51 H351        10.9690    -2.6240     0.2880 h1         1 WWF       0.063200
     52 H352        12.1440    -2.4320    -1.0200 h1         1 WWF       0.063200
     53 H6'         10.2360    -4.9410     0.9530 h4         1 WWF       0.050100
     54 H2A1        12.2120    -8.9660     0.5840 hc         1 WWF       0.052700
     55 H2A2        13.1500    -8.8790    -0.9130 hc         1 WWF       0.052700
     56 H2A3        13.9010    -8.4420     0.6280 hc         1 WWF       0.052700
     57 H4'1        13.9670    -3.2120    -1.5650 hn         1 WWF       0.443800
     58 H4'2        13.9800    -4.4260    -2.8020 hn         1 WWF       0.443800
@<TRIPOS>BOND
     1     1     2 1
     2     2     3 1
     3     2     4 1
     4     2     5 1
     5     5     6 1
     6     6     7 1
     7     6     8 1
     8     6     9 1
     9     9    10 1
    10    10    11 1
    11    10    33 1
    12    10    34 1
    13    11    12 1
    14    11    35 1
    15    11    36 1
    16    12    13 2
    17    12    15 1
    18    13    14 1
    19    13    23 1
    20    14    37 1
    21    14    38 1
    22    14    39 1
    23    15    16 1
    24    16    17 1
    25    16    23 2
    26    17    18 1
    27    17    19 1
    28    17    40 1
    29    18    41 1
    30    19    20 1
    31    19    42 1
    32    19    43 1
    33    20    21 1
    34    20    22 1
    35    20    44 1
    36    21    45 1
    37    21    46 1
    38    21    47 1
    39    22    48 1
    40    22    49 1
    41    22    50 1
    42    23    24 1
    43    24    25 1
    44    24    51 1
    45    24    52 1
    46    25    26 ar
    47    25    31 ar
    48    26    27 ar
    49    26    53 1
    50    27    28 ar
    51    28    29 1
    52    28    30 ar
    53    29    54 1
    54    29    55 1
    55    29    56 1
    56    30    31 ar
    57    31    32 1
    58    32    57 1
    59    32    58 1
@<TRIPOS>SUBSTRUCTURE
     1 WWF         1 TEMP              0 ****  ****    0 ROOT
