@<TRIPOS>MOLECULE
molecule
   28    29     1     0     0
SMALL
bcc


@<TRIPOS>ATOM
      1 O12          0.0000     0.0000     0.0000 o          1 WWL      -0.591800
      2 S10          1.4210     0.0000     0.0000 sy         1 WWL       1.284600
      3 O11          2.1980     0.0000     1.1900 o          1 WWL      -0.591800
      4 C7           1.9170    -1.4200    -0.9190 cc         1 WWL      -0.160600
      5 S8           0.9430    -2.2320    -2.1370 ss         1 WWL       0.137200
      6 C5           3.2600    -3.1360    -1.6280 cd         1 WWL      -0.007000
      7 C6           3.0930    -2.0390    -0.8000 cd         1 WWL      -0.069000
      8 C9           2.2210    -3.4060    -2.4190 cc         1 WWL      -0.341600
      9 S2           2.1430    -4.7340    -3.5750 sy         1 WWL       1.267200
     10 O3           3.4870    -5.0720    -3.8900 o          1 WWL      -0.508300
     11 N4           1.5070    -6.0400    -2.7790 nz         1 WWL      -0.808500
     12 O1           1.1850    -4.3570    -4.5560 o          1 WWL      -0.508300
     13 C13          1.9190     1.4180    -0.9210 ca         1 WWL      -0.308500
     14 C18          3.1700     1.9700    -0.7160 ca         1 WWL      -0.029500
     15 C17          3.5600     3.0820    -1.4380 ca         1 WWL      -0.140500
     16 C16          2.7010     3.6410    -2.3650 ca         1 WWL      -0.055000
     17 C15          1.4500     3.0870    -2.5710 ca         1 WWL      -0.140500
     18 C14          1.0610     1.9730    -1.8520 ca         1 WWL      -0.029500
     19 H1           4.1660    -3.7300    -1.6320 ha         1 WWL       0.173000
     20 H2           3.8580    -1.7100    -0.1080 ha         1 WWL       0.196000
     21 H3           2.1170    -6.3040    -2.0310 hn         1 WWL       0.495133
     22 H4           0.6090    -5.7990    -2.4080 hn         1 WWL       0.495133
     23 H5           3.8430     1.5320     0.0100 ha         1 WWL       0.150000
     24 H6           4.5400     3.5150    -1.2770 ha         1 WWL       0.149500
     25 H7           3.0070     4.5140    -2.9300 ha         1 WWL       0.149000
     26 H8           0.7780     3.5240    -3.2990 ha         1 WWL       0.149500
     27 H9           0.0820     1.5390    -2.0130 ha         1 WWL       0.150000
     28 H43          1.4270    -6.8100    -3.4130 hn         1 WWL       0.495133
@<TRIPOS>BOND
     1     3     2 2
     2    14    15 ar
     3    14    13 ar
     4    15    16 ar
     5     2     1 2
     6     2    13 1
     7     2     4 1
     8    13    18 ar
     9     4     7 2
    10     4     5 1
    11     7     6 1
    12    16    17 ar
    13    18    17 ar
    14     5     8 1
    15     6     8 2
    16     8     9 1
    17    11     9 1
    18    10     9 2
    19     9    12 2
    20     6    19 1
    21     7    20 1
    22    11    21 1
    23    11    22 1
    24    14    23 1
    25    15    24 1
    26    16    25 1
    27    17    26 1
    28    18    27 1
    29    28    11 1
@<TRIPOS>SUBSTRUCTURE
     1 WWL         1 TEMP              0 ****  ****    0 ROOT
