@<TRIPOS>MOLECULE
WWL
   28    29     1     0     0
SMALL
bcc


@<TRIPOS>ATOM
      1 O12          0.0000     0.0000     0.0000 o          1 WWL      -0.556800
      2 S10          1.4210     0.0000     0.0000 sy         1 WWL       0.972600
      3 O11          2.1980     0.0000     1.1900 o          1 WWL      -0.556800
      4 C7           1.9170    -1.4200    -0.9190 cc         1 WWL       0.075400
      5 S8           0.9430    -2.2320    -2.1370 ss         1 WWL      -0.049800
      6 C5           3.2600    -3.1360    -1.6280 cd         1 WWL       0.042000
      7 C6           3.0930    -2.0390    -0.8000 cd         1 WWL      -0.056000
      8 C9           2.2210    -3.4060    -2.4190 cc         1 WWL      -0.164600
      9 S2           2.1430    -4.7340    -3.5750 sy         1 WWL       0.972200
     10 O3           3.4870    -5.0720    -3.8900 o          1 WWL      -0.484300
     11 N4           1.5070    -6.0400    -2.7790 nz         1 WWL      -0.125500
     12 O1           1.1850    -4.3570    -4.5560 o          1 WWL      -0.484300
     13 C13          1.9190     1.4180    -0.9210 ca         1 WWL      -0.160500
     14 C18          3.1700     1.9700    -0.7160 ca         1 WWL       0.002000
     15 C17          3.5600     3.0820    -1.4380 ca         1 WWL      -0.120000
     16 C16          2.7010     3.6410    -2.3650 ca         1 WWL      -0.026000
     17 C15          1.4500     3.0870    -2.5710 ca         1 WWL      -0.120000
     18 C14          1.0610     1.9730    -1.8520 ca         1 WWL       0.002000
     19 H1           4.1660    -3.7300    -1.6320 ha         1 WWL       0.137000
     20 H2           3.8580    -1.7100    -0.1080 ha         1 WWL       0.161000
     21 H3           2.1170    -6.3040    -2.0310 hn         1 WWL       0.315467
     22 H4           0.6090    -5.7990    -2.4080 hn         1 WWL       0.315467
     23 H5           3.8430     1.5320     0.0100 ha         1 WWL       0.121500
     24 H6           4.5400     3.5150    -1.2770 ha         1 WWL       0.118000
     25 H7           3.0070     4.5140    -2.9300 ha         1 WWL       0.113000
     26 H8           0.7780     3.5240    -3.2990 ha         1 WWL       0.118000
     27 H9           0.0820     1.5390    -2.0130 ha         1 WWL       0.121500
     28 H43          1.4270    -6.8100    -3.4130 hn         1 WWL       0.315467
@<TRIPOS>BOND
     1     1     2 2   
     2     2     3 2   
     3     2     4 1   
     4     2    13 1   
     5     4     5 1   
     6     4     7 2   
     7     5     8 1   
     8     6     7 1   
     9     6     8 2   
    10     6    19 1   
    11     7    20 1   
    12     8     9 1   
    13     9    10 2   
    14     9    11 1   
    15     9    12 2   
    16    11    21 1   
    17    11    22 1   
    18    11    28 1   
    19    13    14 ar  
    20    13    18 ar  
    21    14    15 ar  
    22    14    23 1   
    23    15    16 ar  
    24    15    24 1   
    25    16    17 ar  
    26    16    25 1   
    27    17    18 ar  
    28    17    26 1   
    29    18    27 1   
@<TRIPOS>SUBSTRUCTURE
     1 WWL         1 TEMP              0 ****  ****    0 ROOT
