@<TRIPOS>MOLECULE
WWO
   43    44     1     0     0
SMALL
bcc


@<TRIPOS>ATOM
      1 F27          0.0000     0.0000     0.0000 f          1 WWO      -0.092900
      2 C5           1.3510     0.0000     0.0000 ca         1 WWO       0.148900
      3 C4           2.0430     0.0000     1.1970 ca         1 WWO      -0.232500
      4 S7           1.1600     0.0000     2.7230 sy         1 WWO       0.948200
      5 O9          -0.1220     0.5450     2.4450 o          1 WWO      -0.470300
      6 N10          0.9150    -1.5810     3.1480 nz         1 WWO      -0.134500
      7 O8           2.0410     0.5460     3.6960 o          1 WWO      -0.470300
      8 C3           3.4270    -0.0000     1.1990 ca         1 WWO       0.157900
      9 F12          4.1000     0.0000     2.3700 f          1 WWO      -0.085900
     10 C2           4.1230    -0.0010     0.0010 ca         1 WWO       0.194900
     11 F13          5.4740    -0.0020     0.0050 f          1 WWO      -0.069900
     12 C6           2.0470    -0.0070    -1.2030 ca         1 WWO       0.114600
     13 C1           3.4350    -0.0010    -1.2000 ca         1 WWO      -0.088500
     14 S11          4.3210    -0.0020    -2.7240 sy         1 WWO       0.875300
     15 O22          3.4270     0.6030    -3.6480 o          1 WWO      -0.542300
     16 O23          5.5660     0.6030    -2.4050 o          1 WWO      -0.542300
     17 C21          4.5480    -1.7590    -3.1140 c3         1 WWO      -0.002600
     18 C24          5.3130    -1.8940    -4.4310 c3         1 WWO       0.262400
     19 O25          5.4920    -3.2780    -4.7400 oh         1 WWO      -0.594800
     20 N26          1.3500    -0.0120    -2.4170 nu         1 WWO      -0.445600
     21 C14          0.4930     1.1740    -2.5380 c3         1 WWO       0.219100
     22 C15         -0.2400     1.1320    -3.8540 ca         1 WWO      -0.132300
     23 C20         -1.4760     0.5180    -3.9370 ca         1 WWO      -0.077000
     24 C19         -2.1490     0.4800    -5.1430 ca         1 WWO      -0.099500
     25 C18         -1.5870     1.0560    -6.2670 ca         1 WWO      -0.079000
     26 C17         -0.3510     1.6710    -6.1840 ca         1 WWO      -0.099500
     27 C16          0.3200     1.7150    -4.9760 ca         1 WWO      -0.077000
     28 H1           1.7780    -2.0840     3.0740 hn         1 WWO       0.316800
     29 H2           0.2370    -1.9900     2.5360 hn         1 WWO       0.316800
     30 H3           5.1090    -2.2350    -2.3200 h1         1 WWO       0.069200
     31 H4           3.5790    -2.2350    -3.2090 h1         1 WWO       0.069200
     32 H5           4.7520    -1.4170    -5.2260 h1         1 WWO       0.005200
     33 H6           6.2810    -1.4170    -4.3370 h1         1 WWO       0.005200
     34 H7           5.9830    -3.3600    -5.5400 ho         1 WWO       0.411000
     35 H8           1.0640    -0.8800    -2.8260 hn         1 WWO       0.313800
     36 H9           1.1050     2.0670    -2.4930 h1         1 WWO       0.023200
     37 H10         -0.2230     1.1860    -1.7250 h1         1 WWO       0.023200
     38 H11         -1.9160     0.0660    -3.0570 ha         1 WWO       0.109500
     39 H12         -3.1170    -0.0020    -5.2080 ha         1 WWO       0.109500
     40 H13         -2.1130     1.0240    -7.2130 ha         1 WWO       0.109000
     41 H14          0.0880     2.1250    -7.0640 ha         1 WWO       0.109500
     42 H15          1.2880     2.1960    -4.9110 ha         1 WWO       0.109500
     43 H103         0.5680    -1.6250     4.0860 hn         1 WWO       0.316800
@<TRIPOS>BOND
     1     1     2 1   
     2     2     3 ar  
     3     2    12 ar  
     4     3     4 1   
     5     3     8 ar  
     6     4     5 2   
     7     4     6 1   
     8     4     7 2   
     9     6    28 1   
    10     6    29 1   
    11     6    43 1   
    12     8     9 1   
    13     8    10 ar  
    14    10    11 1   
    15    10    13 ar  
    16    12    13 ar  
    17    12    20 1   
    18    13    14 1   
    19    14    15 2   
    20    14    16 2   
    21    14    17 1   
    22    17    18 1   
    23    17    30 1   
    24    17    31 1   
    25    18    19 1   
    26    18    32 1   
    27    18    33 1   
    28    19    34 1   
    29    20    21 1   
    30    20    35 1   
    31    21    22 1   
    32    21    36 1   
    33    21    37 1   
    34    22    23 ar  
    35    22    27 ar  
    36    23    24 ar  
    37    23    38 1   
    38    24    25 ar  
    39    24    39 1   
    40    25    26 ar  
    41    25    40 1   
    42    26    27 ar  
    43    26    41 1   
    44    27    42 1   
@<TRIPOS>SUBSTRUCTURE
     1 WWO         1 TEMP              0 ****  ****    0 ROOT
