@<TRIPOS>MOLECULE
WWV
   43    44     1     0     0
SMALL
bcc


@<TRIPOS>ATOM
      1 C1           0.0000     0.0000     0.0000 ca         1 WWV      -0.259500
      2 N1          -1.1240    -1.5830    -1.9510 nz         1 WWV      -0.134500
      3 O1          -2.1620     0.5440    -1.2500 o          1 WWV      -0.497800
      4 S1          -0.8800     0.0000    -1.5270 sy         1 WWV       0.933200
      5 C2           1.3830     0.0000     0.0000 ca         1 WWV       0.035500
      6 O2           0.0030     0.5440    -2.4980 o          1 WWV      -0.497800
      7 C3           2.0760     0.0000     1.1940 ca         1 WWV      -0.143000
      8 C4           1.3820     0.0010     2.3970 ca         1 WWV       0.042600
      9 C5          -0.0070     0.0010     2.3950 ca         1 WWV      -0.143000
     10 C6          -0.6940     0.0060     1.1960 ca         1 WWV       0.035500
     11 N7           2.0800    -0.0000     3.6100 ns         1 WWV      -0.055100
     12 C8           3.2620     0.6410     3.7070 c          1 WWV       0.546100
     13 O8           3.6750     1.3000     2.7710 o          1 WWV      -0.672100
     14 N9           3.9850     0.5520     4.8410 ns         1 WWV      -0.011100
     15 C10          5.1550     1.3080     4.9850 ca         1 WWV      -0.103400
     16 C11          6.1380     0.9040     5.8790 ca         1 WWV      -0.108300
     17 C12          7.2910     1.6510     6.0190 ca         1 WWV      -0.078000
     18 C13          7.4670     2.8010     5.2710 ca         1 WWV      -0.096000
     19 C14          6.4900     3.2050     4.3800 ca         1 WWV      -0.080000
     20 C15          5.3370     2.4590     4.2300 ca         1 WWV      -0.115000
     21 C16          5.9470    -0.3480     6.6960 c3         1 WWV       0.004600
     22 C17          7.1360    -1.2860     6.4790 c3         1 WWV       0.006400
     23 C18          5.8510     0.0200     8.1780 c3         1 WWV       0.006400
     24 HN1         -1.6500    -2.0430    -1.2340 hn         1 WWV       0.311800
     25 H2           1.9240    -0.0000    -0.9390 ha         1 WWV       0.123500
     26 H12          8.0580     1.3370     6.7170 ha         1 WWV       0.116000
     27 H3           3.1590     0.0000     1.1930 ha         1 WWV       0.150500
     28 H13          8.3710     3.3860     5.3840 ha         1 WWV       0.110000
     29 H14          6.6320     4.1040     3.7930 ha         1 WWV       0.109000
     30 H5          -0.5510     0.0030     3.3310 ha         1 WWV       0.150500
     31 H15          4.5720     2.7760     3.5320 ha         1 WWV       0.155000
     32 H6          -1.7770     0.0060     1.1930 ha         1 WWV       0.123500
     33 H16          5.0350    -0.8450     6.3870 hc         1 WWV       0.005700
     34 HN7          1.7220    -0.5110     4.3930 hn         1 WWV       0.177500
     35 H17          6.8840    -2.2770     6.8340 hc         1 WWV       0.009033
     36 H17A         7.9940    -0.9130     7.0260 hc         1 WWV       0.009033
     37 H17B         7.3730    -1.3300     5.4230 hc         1 WWV       0.009033
     38 H18          5.1640     0.8490     8.3010 hc         1 WWV       0.009033
     39 H18A         5.4910    -0.8330     8.7400 hc         1 WWV       0.009033
     40 H18B         6.8300     0.3060     8.5430 hc         1 WWV       0.009033
     41 HN9          3.6550    -0.0070     5.6020 hn         1 WWV       0.172500
     42 HN1A        -1.6300    -1.6220    -2.8140 hn         1 WWV       0.311800
     43 H131        -0.2400    -2.0390    -2.0610 hn         1 WWV       0.311800
@<TRIPOS>BOND
     1     1     4 1   
     2     1     5 ar  
     3     1    10 ar  
     4     2     4 1   
     5     2    24 1   
     6     2    42 1   
     7     2    43 1   
     8     3     4 2   
     9     4     6 2   
    10     5     7 ar  
    11     5    25 1   
    12     7     8 ar  
    13     7    27 1   
    14     8     9 ar  
    15     8    11 1   
    16     9    10 ar  
    17     9    30 1   
    18    10    32 1   
    19    11    12 1   
    20    11    34 1   
    21    12    13 2   
    22    12    14 1   
    23    14    15 1   
    24    14    41 1   
    25    15    16 ar  
    26    15    20 ar  
    27    16    17 ar  
    28    16    21 1   
    29    17    18 ar  
    30    17    26 1   
    31    18    19 ar  
    32    18    28 1   
    33    19    20 ar  
    34    19    29 1   
    35    20    31 1   
    36    21    22 1   
    37    21    23 1   
    38    21    33 1   
    39    22    35 1   
    40    22    36 1   
    41    22    37 1   
    42    23    38 1   
    43    23    39 1   
    44    23    40 1   
@<TRIPOS>SUBSTRUCTURE
     1 WWV         1 TEMP              0 ****  ****    0 ROOT
