@<TRIPOS>MOLECULE
molecule
   43    44     1     0     0
SMALL
bcc


@<TRIPOS>ATOM
      1 C1           0.0000     0.0000     0.0000 ca         1 WWV      -0.371500
      2 N1          -1.1240    -1.5830    -1.9510 nz         1 WWV      -0.806500
      3 O1          -2.1620     0.5440    -1.2500 o          1 WWV      -0.521800
      4 S1          -0.8800     0.0000    -1.5270 sy         1 WWV       1.225200
      5 C2           1.3830     0.0000     0.0000 ca         1 WWV      -0.007500
      6 O2           0.0030     0.5440    -2.4980 o          1 WWV      -0.521800
      7 C3           2.0760     0.0000     1.1940 ca         1 WWV      -0.159000
      8 C4           1.3820     0.0010     2.3970 ca         1 WWV       0.185600
      9 C5          -0.0070     0.0010     2.3950 ca         1 WWV      -0.159000
     10 C6          -0.6940     0.0060     1.1960 ca         1 WWV      -0.007500
     11 N7           2.0800    -0.0000     3.6100 ns         1 WWV      -0.490100
     12 C8           3.2620     0.6410     3.7070 c          1 WWV       0.778100
     13 O8           3.6750     1.3000     2.7710 o          1 WWV      -0.624100
     14 N9           3.9850     0.5520     4.8410 ns         1 WWV      -0.463100
     15 C10          5.1550     1.3080     4.9850 ca         1 WWV       0.048600
     16 C11          6.1380     0.9040     5.8790 ca         1 WWV      -0.103300
     17 C12          7.2910     1.6510     6.0190 ca         1 WWV      -0.103000
     18 C13          7.4670     2.8010     5.2710 ca         1 WWV      -0.130000
     19 C14          6.4900     3.2050     4.3800 ca         1 WWV      -0.111000
     20 C15          5.3370     2.4590     4.2300 ca         1 WWV      -0.136000
     21 C16          5.9470    -0.3480     6.6960 c3         1 WWV      -0.029400
     22 C17          7.1360    -1.2860     6.4790 c3         1 WWV      -0.086100
     23 C18          5.8510     0.0200     8.1780 c3         1 WWV      -0.086100
     24 HN1         -1.6500    -2.0430    -1.2340 hn         1 WWV       0.490133
     25 H2           1.9240    -0.0000    -0.9390 ha         1 WWV       0.157000
     26 H12          8.0580     1.3370     6.7170 ha         1 WWV       0.142000
     27 H3           3.1590     0.0000     1.1930 ha         1 WWV       0.180500
     28 H13          8.3710     3.3860     5.3840 ha         1 WWV       0.139000
     29 H14          6.6320     4.1040     3.7930 ha         1 WWV       0.140000
     30 H5          -0.5510     0.0030     3.3310 ha         1 WWV       0.180500
     31 H15          4.5720     2.7760     3.5320 ha         1 WWV       0.171000
     32 H6          -1.7770     0.0060     1.1930 ha         1 WWV       0.157000
     33 H16          5.0350    -0.8450     6.3870 hc         1 WWV       0.029700
     34 HN7          1.7220    -0.5110     4.3930 hn         1 WWV       0.336500
     35 H17          6.8840    -2.2770     6.8340 hc         1 WWV       0.041200
     36 H17A         7.9940    -0.9130     7.0260 hc         1 WWV       0.041200
     37 H17B         7.3730    -1.3300     5.4230 hc         1 WWV       0.041200
     38 H18          5.1640     0.8490     8.3010 hc         1 WWV       0.041200
     39 H18A         5.4910    -0.8330     8.7400 hc         1 WWV       0.041200
     40 H18B         6.8300     0.3060     8.5430 hc         1 WWV       0.041200
     41 HN9          3.6550    -0.0070     5.6020 hn         1 WWV       0.328500
     42 HN1A        -1.6300    -1.6220    -2.8140 hn         1 WWV       0.490133
     43 H131        -0.2400    -2.0390    -2.0610 hn         1 WWV       0.490133
@<TRIPOS>BOND
     1     5     1 ar
     2    10     1 ar
     3     1     4 1
     4     2    24 1
     5     2     4 1
     6     2    42 1
     7     3     4 2
     8     4     6 2
     9     7     5 ar
    10     5    25 1
    11    27     7 1
    12     8     7 ar
    13    11     8 1
    14     8     9 ar
    15    30     9 1
    16     9    10 ar
    17    10    32 1
    18    12    11 1
    19    34    11 1
    20    14    12 1
    21    13    12 2
    22    15    14 1
    23    14    41 1
    24    20    15 ar
    25    15    16 ar
    26    17    16 ar
    27    16    21 1
    28    18    17 ar
    29    17    26 1
    30    19    18 ar
    31    28    18 1
    32    29    19 1
    33    19    20 ar
    34    31    20 1
    35    33    21 1
    36    21    22 1
    37    21    23 1
    38    37    22 1
    39    22    35 1
    40    22    36 1
    41    40    23 1
    42    23    39 1
    43    23    38 1
    44    43     2 1
@<TRIPOS>SUBSTRUCTURE
     1 WWV         1 TEMP              0 ****  ****    0 ROOT
