@<TRIPOS>MOLECULE
molecule
   57    59     1     0     0
SMALL
bcc


@<TRIPOS>ATOM
      1 O16          0.0000     0.0000     0.0000 o          1 WWX      -0.584300
      2 S14          1.4210     0.0000     0.0000 sy         1 WWX       1.187300
      3 O15          2.1540     0.0000     1.2170 o          1 WWX      -0.584300
      4 C18          1.6880    -2.6590    -0.5870 c3         1 WWX       0.169400
      5 O20          2.1890    -3.6620    -1.4740 oh         1 WWX      -0.593800
      6 C17          2.0560    -1.2740    -1.1250 c3         1 WWX      -0.194600
      7 C8           1.8570     1.5230    -0.7710 ca         1 WWX      -0.221500
      8 C7           0.9010     2.2460    -1.4630 ca         1 WWX       0.189900
      9 F12         -0.3650     1.7840    -1.5480 f          1 WWX      -0.057900
     10 C6           1.2440     3.4460    -2.0690 ca         1 WWX       0.173900
     11 F11          0.3100     4.1500    -2.7440 f          1 WWX      -0.088900
     12 C9           3.1560     2.0020    -0.6780 ca         1 WWX       0.210600
     13 C10          3.4960     3.2040    -1.2870 ca         1 WWX       0.183900
     14 F13          4.7610     3.6710    -1.1990 f          1 WWX      -0.083900
     15 C5           2.5410     3.9220    -1.9830 ca         1 WWX      -0.372500
     16 S1           2.9720     5.4460    -2.7550 sy         1 WWX       1.246200
     17 O3           2.0240     5.6530    -3.7920 o          1 WWX      -0.492300
     18 N4           2.7190     6.6460    -1.6430 nz         1 WWX      -0.808500
     19 O2           4.3740     5.3980    -2.9820 o          1 WWX      -0.492300
     20 N19          4.1220     1.2740     0.0280 nu         1 WWX      -0.816600
     21 C21          4.3140     1.8240     1.3760 c3         1 WWX       0.290800
     22 C30          5.3620     2.9070     1.3320 ca         1 WWX      -0.135300
     23 C35          6.5300     2.7100     0.6210 ca         1 WWX      -0.114500
     24 C34          7.4910     3.7020     0.5810 ca         1 WWX      -0.133000
     25 C33          7.2830     4.8930     1.2520 ca         1 WWX      -0.121000
     26 C32          6.1150     5.0910     1.9630 ca         1 WWX      -0.133000
     27 C31          5.1510     4.1000     1.9990 ca         1 WWX      -0.114500
     28 C22          4.7700     0.7110     2.3210 c3         1 WWX       0.204400
     29 O29          6.0580     0.2420     1.9160 oh         1 WWX      -0.616800
     30 C23          4.8490     1.2460     3.7270 ca         1 WWX      -0.141300
     31 C28          3.8230     0.9970     4.6190 ca         1 WWX      -0.106500
     32 C27          3.8950     1.4890     5.9100 ca         1 WWX      -0.134000
     33 C26          4.9920     2.2300     6.3070 ca         1 WWX      -0.115000
     34 C25          6.0180     2.4780     5.4150 ca         1 WWX      -0.134000
     35 C24          5.9490     1.9820     4.1260 ca         1 WWX      -0.106500
     36 H1           2.1360    -2.7860     0.3910 h1         1 WWX       0.040200
     37 H2           0.6120    -2.7530    -0.5060 h1         1 WWX       0.040200
     38 H3           1.7790    -4.4880    -1.2770 ho         1 WWX       0.422000
     39 H4           1.6180    -1.1400    -2.1060 h1         1 WWX       0.115700
     40 H5           3.1340    -1.1890    -1.1960 h1         1 WWX       0.115700
     41 H6           3.0040     7.5240    -2.0300 hn         1 WWX       0.496467
     42 H7           3.2540     6.4550    -0.8190 hn         1 WWX       0.496467
     43 H8           4.8920     0.8620    -0.4600 hn         1 WWX       0.459800
     44 H9           3.3800     2.2400     1.7320 h1         1 WWX       0.079700
     45 H10          6.6930     1.7770     0.0960 ha         1 WWX       0.135500
     46 H11          8.4070     3.5480     0.0230 ha         1 WWX       0.137000
     47 H12          8.0370     5.6710     1.2220 ha         1 WWX       0.139000
     48 H13          5.9510     6.0240     2.4870 ha         1 WWX       0.137000
     49 H14          4.2350     4.2540     2.5560 ha         1 WWX       0.135500
     50 H15          4.0600    -0.1070     2.2850 h1         1 WWX       0.085700
     51 H16          6.1690    -0.6520     2.1950 ho         1 WWX       0.418000
     52 H17          2.9630     0.4170     4.3080 ha         1 WWX       0.142500
     53 H18          3.0910     1.2940     6.6090 ha         1 WWX       0.136000
     54 H19          5.0470     2.6170     7.3170 ha         1 WWX       0.136000
     55 H20          6.8790     3.0570     5.7270 ha         1 WWX       0.136000
     56 H21          6.7530     2.1760     3.4270 ha         1 WWX       0.142500
     57 H43          1.7500     6.6740    -1.3970 hn         1 WWX       0.496467
@<TRIPOS>BOND
     1     5     4 1
     2     4     6 1
     3     6     2 1
     4    34    33 ar
     5    34    35 ar
     6    33    32 ar
     7    35    30 ar
     8    32    31 ar
     9    30    31 ar
    10    30    28 1
    11    29    28 1
    12    28    21 1
    13     3     2 2
    14     2     1 2
    15     2     7 1
    16     9     8 1
    17     7     8 ar
    18     7    12 ar
    19     8    10 ar
    20    21    20 1
    21    21    22 1
    22    20    12 1
    23    11    10 1
    24    12    13 ar
    25    10    15 ar
    26    13    15 ar
    27    13    14 1
    28    15    16 1
    29    22    27 ar
    30    22    23 ar
    31    27    26 ar
    32    23    24 ar
    33    17    16 2
    34    18    16 1
    35    16    19 2
    36    26    25 ar
    37    24    25 ar
    38     4    36 1
    39     4    37 1
    40     5    38 1
    41     6    39 1
    42     6    40 1
    43    18    41 1
    44    18    42 1
    45    20    43 1
    46    21    44 1
    47    23    45 1
    48    24    46 1
    49    25    47 1
    50    26    48 1
    51    27    49 1
    52    28    50 1
    53    29    51 1
    54    31    52 1
    55    32    53 1
    56    33    54 1
    57    34    55 1
    58    35    56 1
    59    57    18 1
@<TRIPOS>SUBSTRUCTURE
     1 WWX         1 TEMP              0 ****  ****    0 ROOT
