@<TRIPOS>MOLECULE
molecule
   34    35     1     0     0
SMALL
bcc


@<TRIPOS>ATOM
      1 C1           0.0000     0.0000     0.0000 ca         1 WWZ      -0.371500
      2 N1          -1.1240    -1.5820    -1.9510 nz         1 WWZ      -0.805500
      3 O1          -2.1630     0.5440    -1.2500 o          1 WWZ      -0.520800
      4 S1          -0.8800     0.0010    -1.5260 sy         1 WWZ       1.226200
      5 C2           1.3830     0.0000     0.0000 ca         1 WWZ      -0.007000
      6 O2           0.0020     0.5450    -2.4980 o          1 WWZ      -0.520800
      7 C3           2.0750     0.0000     1.1950 ca         1 WWZ      -0.159500
      8 C4           1.3820    -0.0000     2.3980 ca         1 WWZ       0.185600
      9 C5          -0.0070    -0.0000     2.3950 ca         1 WWZ      -0.159500
     10 C6          -0.6930     0.0060     1.1960 ca         1 WWZ      -0.007000
     11 N7           2.0800    -0.0010     3.6100 ns         1 WWZ      -0.489100
     12 C8           3.2650     0.6350     3.7060 c          1 WWZ       0.779100
     13 O8           3.6820     1.2880     2.7680 o          1 WWZ      -0.621100
     14 N9           3.9880     0.5470     4.8390 ns         1 WWZ      -0.469100
     15 C10          5.1640     1.2930     4.9800 ca         1 WWZ       0.030600
     16 C11          6.2300     0.7810     5.7080 ca         1 WWZ      -0.113500
     17 C12          7.3900     1.5180     5.8440 ca         1 WWZ      -0.147500
     18 C13          7.4890     2.7680     5.2580 ca         1 WWZ       0.134900
     19 F13          8.6250     3.4880     5.3930 f          1 WWZ      -0.129900
     20 C14          6.4280     3.2810     4.5310 ca         1 WWZ      -0.147500
     21 C15          5.2690     2.5440     4.3870 ca         1 WWZ      -0.113500
     22 H11          6.1530    -0.1980     6.1660 ha         1 WWZ       0.151000
     23 HN1         -0.2410    -2.0400    -2.0550 hn         1 WWZ       0.490133
     24 H2           1.9240     0.0000    -0.9380 ha         1 WWZ       0.157500
     25 H12          8.2220     1.1180     6.4110 ha         1 WWZ       0.157000
     26 H3           3.1580    -0.0000     1.1940 ha         1 WWZ       0.180000
     27 H14          6.5090     4.2590     4.0710 ha         1 WWZ       0.157000
     28 H5          -0.5510     0.0020     3.3310 ha         1 WWZ       0.180000
     29 H15          4.4380     2.9450     3.8190 ha         1 WWZ       0.151000
     30 H6          -1.7770     0.0060     1.1940 ha         1 WWZ       0.157500
     31 HN7          1.7120    -0.4930     4.4000 hn         1 WWZ       0.337500
     32 HN9          3.6770    -0.0440     5.5860 hn         1 WWZ       0.326500
     33 HN1A        -1.6550    -2.0410    -1.2370 hn         1 WWZ       0.490133
     34 H13         -1.6250    -1.6220    -2.8160 hn         1 WWZ       0.490133
@<TRIPOS>BOND
     1    10     1 ar
     2     5     1 ar
     3     1     4 1
     4     2    23 1
     5     2     4 1
     6     2    33 1
     7     3     4 2
     8     4     6 2
     9     7     5 ar
    10     5    24 1
    11     8     7 ar
    12    26     7 1
    13    11     8 1
    14     8     9 ar
    15    28     9 1
    16     9    10 ar
    17    10    30 1
    18    12    11 1
    19    11    31 1
    20    13    12 2
    21    14    12 1
    22    32    14 1
    23    14    15 1
    24    16    15 ar
    25    15    21 ar
    26    22    16 1
    27    16    17 ar
    28    25    17 1
    29    17    18 ar
    30    18    19 1
    31    18    20 ar
    32    21    20 ar
    33    20    27 1
    34    21    29 1
    35    34     2 1
@<TRIPOS>SUBSTRUCTURE
     1 WWZ         1 TEMP              0 ****  ****    0 ROOT
