@<TRIPOS>MOLECULE
WWZ
   34    35     1     0     0
SMALL
bcc


@<TRIPOS>ATOM
      1 C1           0.0000     0.0000     0.0000 ca         1 WWZ      -0.259500
      2 N1          -1.1240    -1.5820    -1.9510 nz         1 WWZ      -0.133500
      3 O1          -2.1630     0.5440    -1.2500 o          1 WWZ      -0.497800
      4 S1          -0.8800     0.0010    -1.5260 sy         1 WWZ       0.934200
      5 C2           1.3830     0.0000     0.0000 ca         1 WWZ       0.037000
      6 O2           0.0020     0.5450    -2.4980 o          1 WWZ      -0.497800
      7 C3           2.0750     0.0000     1.1950 ca         1 WWZ      -0.143000
      8 C4           1.3820    -0.0000     2.3980 ca         1 WWZ       0.041600
      9 C5          -0.0070    -0.0000     2.3950 ca         1 WWZ      -0.143000
     10 C6          -0.6930     0.0060     1.1960 ca         1 WWZ       0.037000
     11 N7           2.0800    -0.0010     3.6100 ns         1 WWZ      -0.052100
     12 C8           3.2650     0.6350     3.7060 c          1 WWZ       0.547100
     13 O8           3.6820     1.2880     2.7680 o          1 WWZ      -0.671100
     14 N9           3.9880     0.5470     4.8390 ns         1 WWZ      -0.012100
     15 C10          5.1640     1.2930     4.9800 ca         1 WWZ      -0.122400
     16 C11          6.2300     0.7810     5.7080 ca         1 WWZ      -0.082500
     17 C12          7.3900     1.5180     5.8440 ca         1 WWZ      -0.111000
     18 C13          7.4890     2.7680     5.2580 ca         1 WWZ       0.112900
     19 F13          8.6250     3.4880     5.3930 f          1 WWZ      -0.120900
     20 C14          6.4280     3.2810     4.5310 ca         1 WWZ      -0.111000
     21 C15          5.2690     2.5440     4.3870 ca         1 WWZ      -0.082500
     22 H11          6.1530    -0.1980     6.1660 ha         1 WWZ       0.124500
     23 HN1         -0.2410    -2.0400    -2.0550 hn         1 WWZ       0.312133
     24 H2           1.9240     0.0000    -0.9380 ha         1 WWZ       0.124500
     25 H12          8.2220     1.1180     6.4110 ha         1 WWZ       0.126500
     26 H3           3.1580    -0.0000     1.1940 ha         1 WWZ       0.151000
     27 H14          6.5090     4.2590     4.0710 ha         1 WWZ       0.126500
     28 H5          -0.5510     0.0020     3.3310 ha         1 WWZ       0.151000
     29 H15          4.4380     2.9450     3.8190 ha         1 WWZ       0.124500
     30 H6          -1.7770     0.0060     1.1940 ha         1 WWZ       0.124500
     31 HN7          1.7120    -0.4930     4.4000 hn         1 WWZ       0.177500
     32 HN9          3.6770    -0.0440     5.5860 hn         1 WWZ       0.164500
     33 HN1A        -1.6550    -2.0410    -1.2370 hn         1 WWZ       0.312133
     34 H13         -1.6250    -1.6220    -2.8160 hn         1 WWZ       0.312133
@<TRIPOS>BOND
     1     1     4 1   
     2     1     5 ar  
     3     1    10 ar  
     4     2     4 1   
     5     2    23 1   
     6     2    33 1   
     7     2    34 1   
     8     3     4 2   
     9     4     6 2   
    10     5     7 ar  
    11     5    24 1   
    12     7     8 ar  
    13     7    26 1   
    14     8     9 ar  
    15     8    11 1   
    16     9    10 ar  
    17     9    28 1   
    18    10    30 1   
    19    11    12 1   
    20    11    31 1   
    21    12    13 2   
    22    12    14 1   
    23    14    15 1   
    24    14    32 1   
    25    15    16 ar  
    26    15    21 ar  
    27    16    17 ar  
    28    16    22 1   
    29    17    18 ar  
    30    17    25 1   
    31    18    19 1   
    32    18    20 ar  
    33    20    21 ar  
    34    20    27 1   
    35    21    29 1   
@<TRIPOS>SUBSTRUCTURE
     1 WWZ         1 TEMP              0 ****  ****    0 ROOT
