@<TRIPOS>MOLECULE
WX5
   75    77     1     0     0
SMALL
bcc


@<TRIPOS>ATOM
      1 Cl           0.0000     0.0000     0.0000 cl         1 WX5      -0.021400
      2 C21          1.7370     0.0000     0.0000 ca         1 WX5      -0.039600
      3 C20          2.4280     0.0000     1.1980 ca         1 WX5      -0.083000
      4 C22          2.4280    -0.0050    -1.1980 ca         1 WX5      -0.089000
      5 C23          3.8110    -0.0050    -1.1970 ca         1 WX5      -0.067000
      6 C24          4.5010    -0.0010    -0.0010 ca         1 WX5      -0.091300
      7 C19          3.8110    -0.0010     1.1970 ca         1 WX5      -0.117300
      8 C18          4.5640    -0.0010     2.5020 c3         1 WX5       0.108300
      9 N5           5.0170     1.3580     2.8050 ns         1 WX5      -0.195900
     10 C17          5.7170     1.6000     3.9310 c          1 WX5       0.554100
     11 O3           5.9730     0.6920     4.6930 o          1 WX5      -0.590100
     12 C16          6.1830     2.9990     4.2430 c3         1 WX5      -0.035300
     13 C15          7.5780     3.2540     3.6220 c3         1 WX5      -0.023400
     14 C14          8.1220     4.3880     4.5310 c3         1 WX5      -0.027400
     15 C13          7.5520     4.0230     5.9170 c3         1 WX5       0.046000
     16 N4           6.3800     3.1620     5.6950 n          1 WX5      -0.145800
     17 C12          5.6130     2.6150     6.6590 c          1 WX5       0.588100
     18 O2           4.7260     1.8440     6.3620 o          1 WX5      -0.582100
     19 C4           5.8590     2.9610     8.1050 c3         1 WX5       0.139500
     20 C3           5.2040     4.3060     8.4260 c3         1 WX5      -0.035400
     21 C2           5.5450     4.7100     9.8620 c3         1 WX5      -0.032400
     22 C1           4.8040     6.0000    10.2190 c3         1 WX5       0.141800
     23 N2           5.1310     6.3860    11.5930 nu         1 WX5      -0.498200
     24 C            4.5790     7.5220    12.1380 c2         1 WX5       0.253100
     25 N1           3.7200     8.2940    11.3920 nz         1 WX5       0.190400
     26 N            4.8700     7.8650    13.3610 n2         1 WX5      -0.609100
     27 N3           5.2830     1.9200     8.9600 n7         1 WX5      -0.582100
     28 S            6.2390     0.6930     9.5300 s6         1 WX5       0.951900
     29 O            5.3450    -0.1400    10.2540 o          1 WX5      -0.549300
     30 O1           6.9180     0.2140     8.3770 o          1 WX5      -0.549300
     31 C5           7.4010     1.5120    10.6580 c3         1 WX5       0.049700
     32 C6           8.4020     0.5070    11.1640 ca         1 WX5      -0.100300
     33 C11          9.5810     0.2970    10.4710 ca         1 WX5      -0.085500
     34 C10         10.5010    -0.6260    10.9350 ca         1 WX5      -0.089000
     35 C9          10.2410    -1.3380    12.0910 ca         1 WX5      -0.083000
     36 C8           9.0630    -1.1280    12.7830 ca         1 WX5      -0.089000
     37 C7           8.1450    -0.2030    12.3220 ca         1 WX5      -0.085500
     38 C25          6.0080    -0.0010    -0.0010 c3         1 WX5       0.279700
     39 O4           6.4850    -0.0070    -1.3470 oh         1 WX5      -0.591800
     40 H20          1.8870    -0.0000     2.1370 ha         1 WX5       0.120000
     41 H22          1.8870    -0.0080    -2.1360 ha         1 WX5       0.118000
     42 H23          4.3520    -0.0060    -2.1350 ha         1 WX5       0.132000
     43 H251         6.3690    -0.8840     0.5140 h1         1 WX5      -0.004300
     44 H252         6.3700     0.8850     0.5060 h1         1 WX5      -0.004300
     45 H181         3.9130    -0.3500     3.2950 h1         1 WX5       0.036200
     46 H182         5.4210    -0.6590     2.4250 h1         1 WX5       0.036200
     47 H5           4.7860     2.1120     2.1890 hn         1 WX5       0.173500
     48 H16          5.4710     3.7290     3.8770 h1         1 WX5       0.028700
     49 H151         8.2000     2.3700     3.6940 hc         1 WX5       0.037200
     50 H152         7.4880     3.5910     2.5960 hc         1 WX5       0.037200
     51 H141         7.7470     5.3510     4.2060 hc         1 WX5       0.025700
     52 H142         9.2050     4.3770     4.5490 hc         1 WX5       0.025700
     53 H131         7.2520     4.9230     6.4400 h1         1 WX5       0.007200
     54 H132         8.2980     3.4870     6.4920 h1         1 WX5       0.007200
     55 H4           6.9260     3.0270     8.2840 h1         1 WX5       0.037700
     56 H31C         5.5720     5.0600     7.7410 hc         1 WX5       0.031200
     57 H32C         4.1290     4.2180     8.3210 hc         1 WX5       0.031200
     58 H3           4.3060     1.9340     9.1750 hn         1 WX5       0.357800
     59 H21C         5.2440     3.9200    10.5400 hc         1 WX5       0.034200
     60 H22C         6.6130     4.8710     9.9470 hc         1 WX5       0.034200
     61 H11C         5.1050     6.7890     9.5400 h1         1 WX5       0.016200
     62 H12C         3.7360     5.8380    10.1340 h1         1 WX5       0.016200
     63 H2           5.7570     5.8240    12.1360 hn         1 WX5       0.343800
     64 H11N         2.9280     7.7450    11.1210 hn         1 WX5       0.225800
     65 H12N         4.1930     8.6230    10.5740 hn         1 WX5       0.225800
     66 H            5.4950     7.3030    13.9040 hn         1 WX5       0.379400
     67 H51C         6.8570     1.9320    11.4950 h1         1 WX5       0.053200
     68 H52C         7.9190     2.3040    10.1300 h1         1 WX5       0.053200
     69 H11          9.7840     0.8560     9.5660 ha         1 WX5       0.108500
     70 H7           7.2220    -0.0390    12.8640 ha         1 WX5       0.108500
     71 H10         11.4240    -0.7900    10.3930 ha         1 WX5       0.110000
     72 H9          10.9600    -2.0630    12.4540 ha         1 WX5       0.109000
     73 H8           8.8600    -1.6860    13.6900 ha         1 WX5       0.110000
     74 HA           7.4280    -0.0090    -1.3470 ho         1 WX5       0.395000
     75 H13          3.4110     9.0730    11.9390 hn         1 WX5       0.225800
@<TRIPOS>BOND
     1     1     2 1   
     2     2     3 ar  
     3     2     4 ar  
     4     3     7 ar  
     5     3    40 1   
     6     4     5 ar  
     7     4    41 1   
     8     5     6 ar  
     9     5    42 1   
    10     6     7 ar  
    11     6    38 1   
    12     7     8 1   
    13     8     9 1   
    14     8    45 1   
    15     8    46 1   
    16     9    10 1   
    17     9    47 1   
    18    10    11 2   
    19    10    12 1   
    20    12    13 1   
    21    12    16 1   
    22    12    48 1   
    23    13    14 1   
    24    13    49 1   
    25    13    50 1   
    26    14    15 1   
    27    14    51 1   
    28    14    52 1   
    29    15    16 1   
    30    15    53 1   
    31    15    54 1   
    32    16    17 1   
    33    17    18 2   
    34    17    19 1   
    35    19    20 1   
    36    19    27 1   
    37    19    55 1   
    38    20    21 1   
    39    20    56 1   
    40    20    57 1   
    41    21    22 1   
    42    21    59 1   
    43    21    60 1   
    44    22    23 1   
    45    22    61 1   
    46    22    62 1   
    47    23    24 1   
    48    23    63 1   
    49    24    25 1   
    50    24    26 2   
    51    25    64 1   
    52    25    65 1   
    53    25    75 1   
    54    26    66 1   
    55    27    28 1   
    56    27    58 1   
    57    28    29 2   
    58    28    30 2   
    59    28    31 1   
    60    31    32 1   
    61    31    67 1   
    62    31    68 1   
    63    32    33 ar  
    64    32    37 ar  
    65    33    34 ar  
    66    33    69 1   
    67    34    35 ar  
    68    34    71 1   
    69    35    36 ar  
    70    35    72 1   
    71    36    37 ar  
    72    36    73 1   
    73    37    70 1   
    74    38    39 1   
    75    38    43 1   
    76    38    44 1   
    77    39    74 1   
@<TRIPOS>SUBSTRUCTURE
     1 WX5         1 TEMP              0 ****  ****    0 ROOT
