@<TRIPOS>MOLECULE
molecule
   75    77     1     0     0
SMALL
bcc


@<TRIPOS>ATOM
      1 Cl           0.0000     0.0000     0.0000 cl         1 WX5      -0.104400
      2 C21          1.7370     0.0000     0.0000 ca         1 WX5       0.025400
      3 C20          2.4280     0.0000     1.1980 ca         1 WX5      -0.107000
      4 C22          2.4280    -0.0050    -1.1980 ca         1 WX5      -0.115000
      5 C23          3.8110    -0.0050    -1.1970 ca         1 WX5      -0.094000
      6 C24          4.5010    -0.0010    -0.0010 ca         1 WX5      -0.075300
      7 C19          3.8110    -0.0010     1.1970 ca         1 WX5      -0.112300
      8 C18          4.5640    -0.0010     2.5020 c3         1 WX5       0.162300
      9 N5           5.0170     1.3580     2.8050 ns         1 WX5      -0.586900
     10 C17          5.7170     1.6000     3.9310 c          1 WX5       0.647100
     11 O3           5.9730     0.6920     4.6930 o          1 WX5      -0.553100
     12 C16          6.1830     2.9990     4.2430 c3         1 WX5       0.042700
     13 C15          7.5780     3.2540     3.6220 c3         1 WX5      -0.084400
     14 C14          8.1220     4.3880     4.5310 c3         1 WX5      -0.092400
     15 C13          7.5520     4.0230     5.9170 c3         1 WX5       0.094000
     16 N4           6.3800     3.1620     5.6950 n          1 WX5      -0.484800
     17 C12          5.6130     2.6150     6.6590 c          1 WX5       0.668100
     18 O2           4.7260     1.8440     6.3620 o          1 WX5      -0.541100
     19 C4           5.8590     2.9610     8.1050 c3         1 WX5       0.188500
     20 C3           5.2040     4.3060     8.4260 c3         1 WX5      -0.087400
     21 C2           5.5450     4.7100     9.8620 c3         1 WX5      -0.091400
     22 C1           4.8040     6.0000    10.2190 c3         1 WX5       0.203800
     23 N2           5.1310     6.3860    11.5930 nu         1 WX5      -0.858200
     24 C            4.5790     7.5220    12.1380 c2         1 WX5       0.696100
     25 N1           3.7200     8.2940    11.3920 nz         1 WX5      -0.805600
     26 N            4.8700     7.8650    13.3610 n2         1 WX5      -0.776100
     27 N3           5.2830     1.9200     8.9600 n7         1 WX5      -0.899100
     28 S            6.2390     0.6930     9.5300 s6         1 WX5       1.319900
     29 O            5.3450    -0.1400    10.2540 o          1 WX5      -0.592800
     30 O1           6.9180     0.2140     8.3770 o          1 WX5      -0.592800
     31 C5           7.4010     1.5120    10.6580 c3         1 WX5      -0.173300
     32 C6           8.4020     0.5070    11.1640 ca         1 WX5      -0.101300
     33 C11          9.5810     0.2970    10.4710 ca         1 WX5      -0.109000
     34 C10         10.5010    -0.6260    10.9350 ca         1 WX5      -0.119500
     35 C9          10.2410    -1.3380    12.0910 ca         1 WX5      -0.109000
     36 C8           9.0630    -1.1280    12.7830 ca         1 WX5      -0.119500
     37 C7           8.1450    -0.2030    12.3220 ca         1 WX5      -0.109000
     38 C25          6.0080    -0.0010    -0.0010 c3         1 WX5       0.186700
     39 O4           6.4850    -0.0070    -1.3470 oh         1 WX5      -0.610800
     40 H20          1.8870    -0.0000     2.1370 ha         1 WX5       0.150000
     41 H22          1.8870    -0.0080    -2.1360 ha         1 WX5       0.150000
     42 H23          4.3520    -0.0060    -2.1350 ha         1 WX5       0.165000
     43 H251         6.3690    -0.8840     0.5140 h1         1 WX5       0.035200
     44 H252         6.3700     0.8850     0.5060 h1         1 WX5       0.035200
     45 H181         3.9130    -0.3500     3.2950 h1         1 WX5       0.065700
     46 H182         5.4210    -0.6590     2.4250 h1         1 WX5       0.065700
     47 H5           4.7840     2.1120     2.1900 hn         1 WX5       0.312500
     48 H16          5.4710     3.7290     3.8770 h1         1 WX5       0.057700
     49 H151         7.4880     3.5910     2.5960 hc         1 WX5       0.071700
     50 H152         8.2000     2.3700     3.6940 hc         1 WX5       0.071700
     51 H141         7.7470     5.3510     4.2060 hc         1 WX5       0.059200
     52 H142         9.2050     4.3770     4.5490 hc         1 WX5       0.059200
     53 H131         8.2980     3.4870     6.4920 h1         1 WX5       0.035700
     54 H132         7.2520     4.9230     6.4400 h1         1 WX5       0.035700
     55 H4           6.9260     3.0270     8.2840 h1         1 WX5       0.067700
     56 H31C         4.1290     4.2180     8.3210 hc         1 WX5       0.061700
     57 H32C         5.5720     5.0600     7.7410 hc         1 WX5       0.061700
     58 H3           4.3050     1.9330     9.1730 hn         1 WX5       0.461800
     59 H21C         6.6130     4.8710     9.9470 hc         1 WX5       0.069200
     60 H22C         5.2440     3.9200    10.5400 hc         1 WX5       0.069200
     61 H11C         5.1050     6.7890     9.5400 h1         1 WX5       0.040700
     62 H12C         3.7360     5.8380    10.1340 h1         1 WX5       0.040700
     63 H2           5.7570     5.8240    12.1360 hn         1 WX5       0.512800
     64 H11N         4.1930     8.6230    10.5740 hn         1 WX5       0.468467
     65 H12N         2.9280     7.7450    11.1210 hn         1 WX5       0.468467
     66 H            4.4690     8.6910    13.7590 hn         1 WX5       0.442400
     67 H51C         6.8570     1.9320    11.4950 h1         1 WX5       0.085200
     68 H52C         7.9190     2.3040    10.1300 h1         1 WX5       0.085200
     69 H11          9.7840     0.8560     9.5660 ha         1 WX5       0.134500
     70 H7           7.2220    -0.0390    12.8640 ha         1 WX5       0.134500
     71 H10         11.4240    -0.7900    10.3930 ha         1 WX5       0.140000
     72 H9          10.9600    -2.0630    12.4540 ha         1 WX5       0.140000
     73 H8           8.8600    -1.6860    13.6900 ha         1 WX5       0.140000
     74 HA           7.4280    -0.0090    -1.3470 ho         1 WX5       0.410000
     75 H13          3.4110     9.0730    11.9400 hn         1 WX5       0.468467
@<TRIPOS>BOND
     1     1     2 1
     2     2     3 ar
     3     2     4 ar
     4     3     7 ar
     5     4     5 ar
     6     5     6 ar
     7     6     7 ar
     8     6    38 1
     9     7     8 1
    10     8     9 1
    11     9    10 1
    12    10    11 2
    13    10    12 1
    14    12    13 1
    15    12    16 1
    16    13    14 1
    17    14    15 1
    18    15    16 1
    19    16    17 1
    20    17    18 2
    21    17    19 1
    22    19    20 1
    23    19    27 1
    24    20    21 1
    25    21    22 1
    26    22    23 1
    27    23    24 1
    28    24    25 1
    29    24    26 2
    30    27    28 1
    31    28    29 2
    32    28    30 2
    33    28    31 1
    34    31    32 1
    35    32    33 ar
    36    32    37 ar
    37    33    34 ar
    38    34    35 ar
    39    35    36 ar
    40    36    37 ar
    41    38    39 1
    42     3    40 1
    43     4    41 1
    44     5    42 1
    45    38    43 1
    46    38    44 1
    47     8    45 1
    48     8    46 1
    49     9    47 1
    50    12    48 1
    51    13    49 1
    52    13    50 1
    53    14    51 1
    54    14    52 1
    55    15    53 1
    56    15    54 1
    57    19    55 1
    58    20    56 1
    59    20    57 1
    60    27    58 1
    61    21    59 1
    62    21    60 1
    63    22    61 1
    64    22    62 1
    65    23    63 1
    66    25    64 1
    67    25    65 1
    68    26    66 1
    69    31    67 1
    70    31    68 1
    71    33    69 1
    72    37    70 1
    73    34    71 1
    74    35    72 1
    75    36    73 1
    76    39    74 1
    77    75    25 1
@<TRIPOS>SUBSTRUCTURE
     1 WX5         1 TEMP              0 ****  ****    0 ROOT
