@<TRIPOS>MOLECULE
molecule
   52    55     1     0     0
SMALL
bcc


@<TRIPOS>ATOM
      1 C1           0.0000     0.0000     0.0000 ca         1 WXV      -0.118000
      2 C2           1.3560     0.0000     0.0000 ca         1 WXV      -0.077000
      3 C3           1.4010     0.0010     2.4390 ca         1 WXV      -0.163500
      4 C4           2.0710     0.0000     1.2080 ca         1 WXV      -0.149900
      5 C5           3.4930    -0.0000     1.5680 cc         1 WXV       0.279900
      6 N6           3.5420     0.0010     2.8840 nd         1 WXV      -0.514100
      7 N7           2.3680     0.0000     3.4030 na         1 WXV       0.182900
      8 C8           2.0990     0.0020     4.8440 c3         1 WXV       0.059600
      9 C9           4.6400    -0.0010     0.6410 c          1 WXV       0.629800
     10 O10          4.4510    -0.0020    -0.5600 o          1 WXV      -0.606100
     11 C11         -0.7090    -0.0000     1.2170 ca         1 WXV      -0.316600
     12 C12         -0.0090     0.0010     2.4490 ca         1 WXV       0.518600
     13 N13         -0.7090     0.0010     3.5880 nb         1 WXV      -0.817000
     14 C14         -2.0280     0.0010     3.5600 ca         1 WXV       0.943900
     15 N15         -2.7180     0.0010     2.4210 nb         1 WXV      -0.792000
     16 C16         -2.1140     0.0000     1.2510 ca         1 WXV       0.519200
     17 N17         -2.7200     0.0020     4.7580 nu         1 WXV      -0.895900
     18 N18          5.8980    -0.0010     1.1250 ns         1 WXV      -0.577900
     19 C19         -4.1850     0.0030     4.7580 c3         1 WXV       0.251500
     20 C20         -4.6940     0.6120     6.0650 c3         1 WXV      -0.105400
     21 C21         -6.2260     0.6430     6.0470 c3         1 WXV       0.237300
     22 N22         -6.7230    -0.7140     5.7800 n3         1 WXV      -0.823500
     23 C23         -6.2270    -1.4270     4.5960 c3         1 WXV       0.237300
     24 C24         -4.6940    -1.4350     4.6310 c3         1 WXV      -0.105400
     25 S25         -7.8210    -1.4250     6.7960 s6         1 WXV       1.326900
     26 C26         -9.4360    -0.9500     6.1190 c3         1 WXV      -0.248300
     27 O27         -7.6010    -2.8190     6.6280 o          1 WXV      -0.628300
     28 O28         -7.6000    -0.7930     8.0490 o          1 WXV      -0.628300
     29 C29          7.0370    -0.0020     0.2050 c3         1 WXV       0.104300
     30 H1          -0.5400     0.0000    -0.9390 ha         1 WXV       0.136000
     31 H2           1.8920     0.0000    -0.9410 ha         1 WXV       0.161000
     32 H81C         1.5300    -0.8820     5.1060 h1         1 WXV       0.065367
     33 H82C         3.0370     0.0010     5.3860 h1         1 WXV       0.065367
     34 H83C         1.5320     0.8870     5.1040 h1         1 WXV       0.065367
     35 H18          6.0530    -0.0000     2.1140 hn         1 WXV       0.325500
     36 H16         -2.6890     0.0000     0.3320 h4         1 WXV       0.034100
     37 H17         -2.2200     0.0160     5.6240 hn         1 WXV       0.455800
     38 H19         -4.5500     0.5880     3.9220 h1         1 WXV       0.078700
     39 H291         6.9970    -0.8870    -0.4180 h1         1 WXV       0.042033
     40 H292         6.9980     0.8820    -0.4190 h1         1 WXV       0.042033
     41 H293         7.9600    -0.0020     0.7730 h1         1 WXV       0.042033
     42 H201        -4.3150     1.6220     6.1640 hc         1 WXV       0.059950
     43 H202        -4.3560     0.0100     6.9000 hc         1 WXV       0.059950
     44 H241        -4.3150    -1.8720     3.7150 hc         1 WXV       0.059950
     45 H242        -4.3560    -2.0140     5.4810 hc         1 WXV       0.059950
     46 H211        -6.5930     0.9800     7.0090 h1         1 WXV       0.057950
     47 H212        -6.5660     1.3130     5.2670 h1         1 WXV       0.057950
     48 H231        -6.5950    -2.4460     4.6070 h1         1 WXV       0.057950
     49 H232        -6.5670    -0.9220     3.7000 h1         1 WXV       0.057950
     50 H261        -9.5240    -1.3190     5.1040 h1         1 WXV       0.096033
     51 H262       -10.2230    -1.3780     6.7280 h1         1 WXV       0.096033
     52 H263        -9.5250     0.1290     6.1200 h1         1 WXV       0.096033
@<TRIPOS>BOND
     1     1     2 ar
     2     1    11 ar
     3     2     4 ar
     4     3     4 ar
     5     3     7 1
     6     3    12 ar
     7     4     5 1
     8     5     6 2
     9     5     9 1
    10     6     7 1
    11     7     8 1
    12     9    10 2
    13     9    18 1
    14    11    12 ar
    15    11    16 ar
    16    12    13 ar
    17    13    14 ar
    18    14    15 ar
    19    14    17 1
    20    15    16 ar
    21    17    19 1
    22    18    29 1
    23    19    20 1
    24    19    24 1
    25    20    21 1
    26    21    22 1
    27    22    23 1
    28    22    25 1
    29    23    24 1
    30    25    26 1
    31    25    27 2
    32    25    28 2
    33     1    30 1
    34     2    31 1
    35     8    32 1
    36     8    33 1
    37     8    34 1
    38    18    35 1
    39    16    36 1
    40    17    37 1
    41    19    38 1
    42    29    39 1
    43    29    40 1
    44    29    41 1
    45    20    42 1
    46    20    43 1
    47    24    44 1
    48    24    45 1
    49    21    46 1
    50    21    47 1
    51    23    48 1
    52    23    49 1
    53    26    50 1
    54    26    51 1
    55    26    52 1
@<TRIPOS>SUBSTRUCTURE
     1 WXV         1 TEMP              0 ****  ****    0 ROOT
