@<TRIPOS>MOLECULE
molecule
   34    35     1     0     0
SMALL
bcc


@<TRIPOS>ATOM
      1 CAB          0.0000     0.0000     0.0000 c3         1 WY1      -0.047800
      2 CAR          1.5070     0.0000     0.0000 ca         1 WY1      -0.135300
      3 CAP          2.1980     0.0000     1.1960 ca         1 WY1      -0.070300
      4 CAA          1.4440     0.0000     2.5020 c3         1 WY1      -0.042800
      5 CAG          3.5800    -0.0010     1.1970 ca         1 WY1      -0.156000
      6 CAF          4.2760    -0.0010     0.0020 ca         1 WY1      -0.107000
      7 CAH          3.5910     0.0000    -1.1980 ca         1 WY1      -0.130000
      8 CAT          2.2020    -0.0070    -1.2020 ca         1 WY1       0.166600
      9 NAM          1.5060    -0.0130    -2.4150 nu         1 WY1      -0.765300
     10 C4           2.1100    -0.5120    -3.5590 ca         1 WY1       0.731200
     11 N3           3.2980    -1.1050    -3.4890 nb         1 WY1      -0.796000
     12 C5           1.4770    -0.4040    -4.7980 ca         1 WY1      -0.479600
     13 C6           2.1170    -0.9170    -5.9110 ca         1 WY1       0.603300
     14 Cl6          1.3740    -0.8090    -7.4770 cl         1 WY1      -0.174000
     15 N1           3.3030    -1.4910    -5.7710 nb         1 WY1      -0.779000
     16 C2           3.8780    -1.5840    -4.5800 ca         1 WY1       0.822300
     17 SAN          5.4530    -2.3630    -4.4450 ss         1 WY1      -0.179400
     18 CAJ          5.7380    -2.7990    -6.1780 c3         1 WY1      -0.109300
     19 CAO          7.0660    -3.4980    -6.3080 c          1 WY1       0.902600
     20 OAC          7.7500    -3.6820    -5.3290 o          1 WY1      -0.827300
     21 OAD          7.4900    -3.9160    -7.5110 o          1 WY1      -0.827300
     22 HAB1        -0.3610    -0.7980    -0.6370 hc         1 WY1       0.038033
     23 HAB2        -0.3610     0.9510    -0.3730 hc         1 WY1       0.038033
     24 HAB3        -0.3610    -0.1520     1.0100 hc         1 WY1       0.038033
     25 HAA1         0.7620     0.8410     2.5250 hc         1 WY1       0.037033
     26 HAA2         0.8830    -0.9220     2.5950 hc         1 WY1       0.037033
     27 HAA3         2.1450     0.0810     3.3230 hc         1 WY1       0.037033
     28 HAG          4.1200    -0.0010     2.1370 ha         1 WY1       0.122000
     29 HAF          5.3590     0.0010     0.0060 ha         1 WY1       0.135000
     30 HAH          4.1370    -0.0030    -2.1340 ha         1 WY1       0.185000
     31 HAM          0.5830     0.3700    -2.4630 hn         1 WY1       0.451800
     32 H5           0.6310     0.2620    -4.9180 ha         1 WY1       0.138000
     33 HAJ1         5.7430    -1.8990    -6.7810 h1         1 WY1       0.071200
     34 HAJ2         4.9480    -3.4580    -6.5190 h1         1 WY1       0.071200
@<TRIPOS>BOND
     1     1     2 1
     2     2     3 ar
     3     2     8 ar
     4     3     4 1
     5     3     5 ar
     6     5     6 ar
     7     6     7 ar
     8     7     8 ar
     9     8     9 1
    10     9    10 1
    11    10    11 ar
    12    10    12 ar
    13    11    16 ar
    14    12    13 ar
    15    13    14 1
    16    13    15 ar
    17    15    16 ar
    18    16    17 1
    19    17    18 1
    20    18    19 1
    21    19    20 1
    22    19    21 1
    23     1    22 1
    24     1    23 1
    25     1    24 1
    26     4    25 1
    27     4    26 1
    28     4    27 1
    29     5    28 1
    30     6    29 1
    31     7    30 1
    32     9    31 1
    33    12    32 1
    34    18    33 1
    35    18    34 1
@<TRIPOS>SUBSTRUCTURE
     1 WY1         1 TEMP              0 ****  ****    0 ROOT
