@<TRIPOS>MOLECULE
WY2
   35    38     1     0     0
SMALL
bcc


@<TRIPOS>ATOM
      1 S1           0.0000     0.0000     0.0000 ss         1 WY2      -0.467200
      2 C2           1.8080     0.0000     0.0000 c3         1 WY2       0.058400
      3 C3           2.2480     0.0000     1.4340 ce         1 WY2       0.343300
      4 N4           2.2530     1.0060     2.2450 nf         1 WY2      -0.485300
      5 C5           1.8610     2.2300     1.7750 cf         1 WY2       0.054600
      6 C6           0.7510     2.5540     1.0910 ce         1 WY2      -0.244400
      7 C7           0.6430     3.9980     0.7900 c          1 WY2       1.004800
      8 O8           0.1050     4.8030     1.5160 o          1 WY2      -0.902800
      9 O8A          1.2320     4.2450    -0.3940 o          1 WY2      -0.902800
     10 C61         -0.3850     1.7000     0.5750 c3         1 WY2       0.156300
     11 C62         -1.5610     1.6760     1.5280 cc         1 WY2       0.374600
     12 C66         -2.8410     2.1610     1.3070 cd         1 WY2      -0.429600
     13 N65         -3.4960     1.8940     2.4670 na         1 WY2       0.434100
     14 C64         -2.6090     1.2780     3.3070 cd         1 WY2       0.283900
     15 N63         -1.4220     1.1210     2.7890 nc         1 WY2      -0.473000
     16 S66         -3.3510     0.8810     4.8470 ss         1 WY2      -0.273300
     17 C67         -4.8200     1.5790     4.2460 cc         1 WY2      -0.083400
     18 C68         -4.7380     2.0590     3.0040 cd         1 WY2      -0.233600
     19 C69         -5.9900     2.6430     2.5010 c3         1 WY2       0.074900
     20 C70         -6.8350     2.6710     3.7970 c3         1 WY2      -0.030400
     21 C71         -6.1600     1.7430     4.8370 c3         1 WY2       0.086900
     22 C31          2.6890    -1.3040     2.0080 c          1 WY2       0.922300
     23 O32          1.9440    -2.0760     2.5520 o          1 WY2      -0.892800
     24 O33          4.0090    -1.4330     1.8060 o          1 WY2      -0.892800
     25 H21          2.1760     0.8890    -0.4980 h1         1 WY2       0.054200
     26 H22          2.1760    -0.8890    -0.4980 h1         1 WY2       0.054200
     27 H5           2.5390     3.0490     1.9830 h4         1 WY2       0.103000
     28 H61         -0.7400     2.2170    -0.3080 h1         1 WY2       0.049700
     29 H66         -3.3000     2.3280     0.3400 h4         1 WY2       0.156000
     30 H691        -6.4440     2.0030     1.7540 hc         1 WY2       0.024700
     31 H692        -5.8260     3.6450     2.1220 hc         1 WY2       0.024700
     32 H701        -7.8360     2.3140     3.5860 hc         1 WY2       0.006700
     33 H702        -6.8750     3.6820     4.1830 hc         1 WY2       0.006700
     34 H711        -6.6750     0.7920     4.8990 hc         1 WY2       0.017200
     35 H712        -6.0990     2.2260     5.8050 hc         1 WY2       0.017200
@<TRIPOS>BOND
     1     1     2 1   
     2     1    10 1   
     3     2     3 1   
     4     2    25 1   
     5     2    26 1   
     6     3     4 2   
     7     3    22 1   
     8     4     5 1   
     9     5     6 2   
    10     5    27 1   
    11     6     7 1   
    12     6    10 1   
    13     7     8 1   
    14     7     9 1   
    15    10    11 1   
    16    10    28 1   
    17    11    12 2   
    18    11    15 1   
    19    12    13 1   
    20    12    29 1   
    21    13    14 1   
    22    13    18 1   
    23    14    15 2   
    24    14    16 1   
    25    16    17 1   
    26    17    18 2   
    27    17    21 1   
    28    18    19 1   
    29    19    20 1   
    30    19    30 1   
    31    19    31 1   
    32    20    21 1   
    33    20    32 1   
    34    20    33 1   
    35    21    34 1   
    36    21    35 1   
    37    22    23 1   
    38    22    24 1   
@<TRIPOS>SUBSTRUCTURE
     1 WY2         1 TEMP              0 ****  ****    0 ROOT
