@<TRIPOS>MOLECULE
WY3
   34    36     1     0     0
SMALL
bcc


@<TRIPOS>ATOM
      1 C1           0.0000     0.0000     0.0000 cc         1 WY3       0.028600
      2 C2           1.4650     0.0000     0.0000 ca         1 WY3      -0.178800
      3 C3          -0.7720     0.0000    -1.2930 c3         1 WY3       0.196000
      4 C4          -0.6420    -0.0060     1.1960 cd         1 WY3      -0.240200
      5 C5           2.1450     0.0000     1.2320 ca         1 WY3       0.192100
      6 C6           2.1860    -0.0000    -1.1990 ca         1 WY3      -0.049000
      7 N7          -0.9210     1.3800    -1.7760 n3         1 WY3      -0.528600
      8 C8           0.1040    -0.0120     2.3930 c          1 WY3       0.787800
      9 O9           1.4460    -0.0010     2.3870 os         1 WY3      -0.275200
     10 C10          3.5330     0.0000     1.2430 ca         1 WY3      -0.174000
     11 C11          3.5500     0.0000    -1.1700 ca         1 WY3      -0.167000
     12 C12         -1.8660     1.4460    -2.9000 c3         1 WY3       0.094300
     13 C13          0.3810     1.9480    -2.1540 c3         1 WY3       0.094300
     14 O14         -0.4850    -0.0170     3.4590 o          1 WY3      -0.621500
     15 C15          4.2300     0.0010     0.0470 ca         1 WY3       0.179100
     16 C16         -2.0350     2.9050    -3.3320 c3         1 WY3       0.215900
     17 C17          0.1890     3.4020    -2.5920 c3         1 WY3       0.215900
     18 O18          5.5880     0.0010     0.0590 oh         1 WY3      -0.498100
     19 O19         -0.7560     3.4500    -3.6650 os         1 WY3      -0.411600
     20 H3          -0.2390    -0.5850    -2.0330 h1         1 WY3       0.021200
     21 H3A         -1.7520    -0.4320    -1.1290 h1         1 WY3       0.021200
     22 H4          -1.7250    -0.0150     1.2310 ha         1 WY3       0.145000
     23 H6           1.6620    -0.0000    -2.1470 ha         1 WY3       0.126000
     24 H10          4.0690     0.0000     2.1850 ha         1 WY3       0.136000
     25 H11          4.1070     0.0010    -2.0990 ha         1 WY3       0.121000
     26 H12         -2.8240     1.0490    -2.5890 h1         1 WY3       0.023950
     27 H12A        -1.4800     0.8670    -3.7300 h1         1 WY3       0.023950
     28 H13          0.7990     1.3770    -2.9740 h1         1 WY3       0.023950
     29 H13A         1.0500     1.9140    -1.3040 h1         1 WY3       0.023950
     30 H16         -2.4680     3.4740    -2.5180 h1         1 WY3       0.015450
     31 H16A        -2.6840     2.9520    -4.1980 h1         1 WY3       0.015450
     32 H17         -0.1840     3.9840    -1.7580 h1         1 WY3       0.015450
     33 H17A         1.1360     3.8060    -2.9280 h1         1 WY3       0.015450
     34 HO18         5.9020    -0.8870     0.1060 ho         1 WY3       0.410000
@<TRIPOS>BOND
     1     1     2 1   
     2     1     3 1   
     3     1     4 2   
     4     2     5 ar  
     5     2     6 ar  
     6     3     7 1   
     7     3    20 1   
     8     3    21 1   
     9     4     8 1   
    10     4    22 1   
    11     5     9 1   
    12     5    10 ar  
    13     6    11 ar  
    14     6    23 1   
    15     7    12 1   
    16     7    13 1   
    17     8     9 1   
    18     8    14 2   
    19    10    15 ar  
    20    10    24 1   
    21    11    15 ar  
    22    11    25 1   
    23    12    16 1   
    24    12    26 1   
    25    12    27 1   
    26    13    17 1   
    27    13    28 1   
    28    13    29 1   
    29    15    18 1   
    30    16    19 1   
    31    16    30 1   
    32    16    31 1   
    33    17    19 1   
    34    17    32 1   
    35    17    33 1   
    36    18    34 1   
@<TRIPOS>SUBSTRUCTURE
     1 WY3         1 TEMP              0 ****  ****    0 ROOT
