@<TRIPOS>MOLECULE
molecule
   34    36     1     0     0
SMALL
bcc


@<TRIPOS>ATOM
      1 C1           0.0000     0.0000     0.0000 cc         1 WY3       0.022600
      2 C2           1.4650     0.0000     0.0000 ca         1 WY3      -0.165800
      3 C3          -0.7720     0.0000    -1.2930 c3         1 WY3       0.198000
      4 C4          -0.6420    -0.0060     1.1960 cd         1 WY3      -0.253200
      5 C5           2.1450     0.0000     1.2320 ca         1 WY3       0.181100
      6 C6           2.1860    -0.0000    -1.1990 ca         1 WY3      -0.073000
      7 N7          -0.9210     1.3800    -1.7760 n3         1 WY3      -0.720600
      8 C8           0.1040    -0.0120     2.3930 c          1 WY3       0.737800
      9 O9           1.4460    -0.0010     2.3870 os         1 WY3      -0.305200
     10 C10          3.5330     0.0000     1.2430 ca         1 WY3      -0.177000
     11 C11          3.5500     0.0000    -1.1700 ca         1 WY3      -0.180000
     12 C12         -1.8660     1.4460    -2.9000 c3         1 WY3       0.116800
     13 C13          0.3810     1.9480    -2.1540 c3         1 WY3       0.116800
     14 O14         -0.4850    -0.0170     3.4590 o          1 WY3      -0.572500
     15 C15          4.2300     0.0010     0.0470 ca         1 WY3       0.154100
     16 C16         -2.0350     2.9050    -3.3320 c3         1 WY3       0.139900
     17 C17          0.1890     3.4020    -2.5920 c3         1 WY3       0.139900
     18 O18          5.5880     0.0010     0.0590 oh         1 WY3      -0.516100
     19 O19         -0.7560     3.4500    -3.6650 os         1 WY3      -0.424600
     20 H3          -0.2390    -0.5850    -2.0330 h1         1 WY3       0.049700
     21 H3A         -1.7520    -0.4320    -1.1290 h1         1 WY3       0.049700
     22 H4          -1.7250    -0.0150     1.2310 ha         1 WY3       0.174000
     23 H6           1.6620    -0.0000    -2.1470 ha         1 WY3       0.149000
     24 H10          4.0690     0.0000     2.1850 ha         1 WY3       0.165000
     25 H11          4.1070     0.0010    -2.0990 ha         1 WY3       0.149000
     26 H12         -2.8240     1.0490    -2.5890 h1         1 WY3       0.046700
     27 H12A        -1.4800     0.8670    -3.7300 h1         1 WY3       0.046700
     28 H13          0.7990     1.3770    -2.9740 h1         1 WY3       0.046700
     29 H13A         1.0500     1.9140    -1.3040 h1         1 WY3       0.046700
     30 H16         -2.4680     3.4740    -2.5180 h1         1 WY3       0.057200
     31 H16A        -2.6840     2.9520    -4.1980 h1         1 WY3       0.057200
     32 H17         -0.1840     3.9840    -1.7580 h1         1 WY3       0.057200
     33 H17A         1.1360     3.8060    -2.9280 h1         1 WY3       0.057200
     34 HO18         5.9020    -0.8870     0.1060 ho         1 WY3       0.429000
@<TRIPOS>BOND
     1     1     2 1
     2     1     3 1
     3     1     4 2
     4     2     5 ar
     5     2     6 ar
     6     3     7 1
     7     4     8 1
     8     5     9 1
     9     5    10 ar
    10     6    11 ar
    11     7    12 1
    12     7    13 1
    13     8     9 1
    14     8    14 2
    15    10    15 ar
    16    11    15 ar
    17    12    16 1
    18    13    17 1
    19    15    18 1
    20    16    19 1
    21    17    19 1
    22     3    20 1
    23     3    21 1
    24     4    22 1
    25     6    23 1
    26    10    24 1
    27    11    25 1
    28    12    26 1
    29    12    27 1
    30    13    28 1
    31    13    29 1
    32    16    30 1
    33    16    31 1
    34    17    32 1
    35    17    33 1
    36    18    34 1
@<TRIPOS>SUBSTRUCTURE
     1 WY3         1 TEMP              0 ****  ****    0 ROOT
