@<TRIPOS>MOLECULE
molecule
   33    35     1     0     0
SMALL
bcc


@<TRIPOS>ATOM
      1 S1           0.0000     0.0000     0.0000 ss         1 WY4      -0.319200
      2 C2           1.8080     0.0000     0.0000 c3         1 WY4      -0.061600
      3 C3           2.2480     0.0000     1.4340 ce         1 WY4       0.466300
      4 N4           2.2530     1.0060     2.2450 nf         1 WY4      -0.604300
      5 C5           1.8610     2.2300     1.7750 cf         1 WY4       0.185600
      6 C6           0.7510     2.5540     1.0910 ce         1 WY4      -0.331400
      7 C7           0.6430     3.9980     0.7900 c          1 WY4       0.580100
      8 O8          -0.3010     4.4620     0.1760 o          1 WY4      -0.576100
      9 C31          2.6890    -1.3040     2.0080 c          1 WY4       0.824300
     10 O32          1.9440    -2.0760     2.5520 o          1 WY4      -0.802300
     11 O33          4.0090    -1.4330     1.8060 o          1 WY4      -0.802300
     12 C61         -0.3850     1.7000     0.5750 c3         1 WY4       0.103300
     13 C62         -1.5610     1.6760     1.5280 cc         1 WY4       0.316600
     14 N63         -1.4310     1.1290     2.7850 nc         1 WY4      -0.599000
     15 C64         -2.6150     1.2730     3.3430 cd         1 WY4       0.342800
     16 N65         -3.4870     1.8870     2.4800 na         1 WY4      -0.191900
     17 C66         -2.8350     2.1540     1.3180 cd         1 WY4      -0.236600
     18 C67         -3.0560     0.8260     4.6890 c3         1 WY4       0.114100
     19 O68         -4.2570     1.5180     5.0670 os         1 WY4      -0.420600
     20 C69         -5.2770     1.4210     4.0640 c3         1 WY4       0.121400
     21 C70         -4.8490     2.2190     2.8380 c3         1 WY4       0.007300
     22 HC21         2.1760     0.8890    -0.4980 h1         1 WY4       0.079700
     23 HC22         2.1760    -0.8890    -0.4980 h1         1 WY4       0.079700
     24 HC5          2.5390     3.0490     1.9830 h4         1 WY4       0.119000
     25 HC7          1.4310     4.6610     1.1280 h4         1 WY4      -0.022800
     26 H61         -0.7400     2.2170    -0.3080 h1         1 WY4       0.068700
     27 H66         -3.2980     2.3310     0.3540 h4         1 WY4       0.180000
     28 H671        -2.2770     1.0400     5.4100 h1         1 WY4       0.076700
     29 H672        -3.2490    -0.2400     4.6660 h1         1 WY4       0.076700
     30 H691        -5.3700     0.3810     3.7760 h1         1 WY4       0.057700
     31 H692        -6.1820     1.8670     4.4590 h1         1 WY4       0.057700
     32 H701        -4.9130     3.2770     3.0600 h1         1 WY4       0.054700
     33 H702        -5.5050     1.9800     2.0100 h1         1 WY4       0.054700
@<TRIPOS>BOND
     1     1     2 1
     2     1    12 1
     3     2     3 1
     4     2    22 1
     5     2    23 1
     6     3     4 2
     7     3     9 1
     8     4     5 1
     9     5     6 2
    10     5    24 1
    11     6     7 1
    12     6    12 1
    13     7     8 2
    14     7    25 1
    15     9    10 1
    16     9    11 1
    17    12    13 1
    18    12    26 1
    19    13    14 1
    20    13    17 2
    21    14    15 2
    22    15    16 1
    23    15    18 1
    24    16    17 1
    25    16    21 1
    26    17    27 1
    27    18    19 1
    28    18    28 1
    29    18    29 1
    30    19    20 1
    31    20    21 1
    32    20    30 1
    33    20    31 1
    34    21    32 1
    35    21    33 1
@<TRIPOS>SUBSTRUCTURE
     1 WY4         1 TEMP              0 ****  ****    0 ROOT
