@<TRIPOS>MOLECULE
molecule
   55    58     1     0     0
SMALL
bcc


@<TRIPOS>ATOM
      1 OAC          0.0000     0.0000     0.0000 o          1 WY5      -0.514500
      2 CAD          1.2170     0.0000     0.0000 c          1 WY5       0.719800
      3 CAC          1.9770     0.0000     1.2630 cc         1 WY5      -0.178400
      4 CAJ          1.4090     0.5600     2.4980 c          1 WY5       0.885800
      5 OAD          2.0580     0.5470     3.5260 o          1 WY5      -0.813800
      6 OAE          0.1690     1.0860     2.4920 o          1 WY5      -0.813800
      7 OAA          1.9150    -0.0070    -1.1570 os         1 WY5      -0.343200
      8 CAI          3.0290    -0.7770    -1.1860 ca         1 WY5       0.179100
      9 CAH          3.4740    -1.3080    -2.3850 ca         1 WY5      -0.234000
     10 CAG          4.6290    -2.0710    -2.4230 ca         1 WY5       0.145100
     11 OAB          5.0530    -2.5950    -3.5990 oh         1 WY5      -0.504100
     12 CAF          5.3650    -2.3020    -1.2490 cp         1 WY5      -0.099000
     13 CAE          4.9250    -1.7890    -0.0410 ca         1 WY5      -0.058000
     14 CAA          3.7390    -1.0410     0.0040 ca         1 WY5      -0.130800
     15 CAB          3.2540    -0.5510     1.2370 cd         1 WY5      -0.104200
     16 CAV          6.6150    -3.0990    -1.3040 cp         1 WY5      -0.016000
     17 CAU          6.6940    -4.3240    -0.6500 ca         1 WY5      -0.112000
     18 CAT          7.8610    -5.0730    -0.7000 ca         1 WY5      -0.074300
     19 CAO          7.8790    -6.3880     0.0370 c3         1 WY5      -0.015700
     20 CAP          8.0510    -6.1250     1.5340 c3         1 WY5      -0.081600
     21 CAQ          6.5550    -7.1160    -0.1980 c3         1 WY5      -0.081600
     22 CAN          9.0290    -7.2640    -0.4560 c3         1 WY5      -0.071400
     23 CAM         10.3200    -6.4360    -0.4130 c3         1 WY5      -0.070400
     24 CAL         10.2420    -5.3680    -1.5010 c3         1 WY5      -0.017700
     25 CAS         10.3270    -6.0390    -2.8740 c3         1 WY5      -0.080100
     26 CAR         11.4160    -4.3990    -1.3400 c3         1 WY5      -0.080100
     27 CAK          8.9480    -4.6020    -1.4020 ca         1 WY5      -0.066300
     28 CAY          8.8730    -3.3770    -2.0530 ca         1 WY5      -0.135000
     29 CAW          7.7180    -2.6290    -2.0140 ca         1 WY5      -0.056300
     30 CAX          7.6500    -1.3020    -2.7250 c3         1 WY5      -0.047800
     31 H2           2.9190    -1.1240    -3.2970 ha         1 WY5       0.142000
     32 H3           4.3060    -2.8420    -4.1200 ho         1 WY5       0.416000
     33 H4           5.4910    -1.9670     0.8650 ha         1 WY5       0.146000
     34 H5           3.8660    -0.5830     2.1300 ha         1 WY5       0.164000
     35 H6           5.8430    -4.6910    -0.0900 ha         1 WY5       0.138000
     36 H7           8.5120    -6.9860     2.0020 hc         1 WY5       0.036533
     37 H8           7.0820    -5.9460     1.9830 hc         1 WY5       0.036533
     38 H9           8.6810    -5.2550     1.6780 hc         1 WY5       0.036533
     39 H10          5.7740    -6.6430     0.3850 hc         1 WY5       0.036533
     40 H11          6.2990    -7.0700    -1.2500 hc         1 WY5       0.036533
     41 H12          6.6530    -8.1520     0.1040 hc         1 WY5       0.036533
     42 H13          9.1290    -8.1290     0.1890 hc         1 WY5       0.042200
     43 H14          8.8340    -7.5810    -1.4730 hc         1 WY5       0.042200
     44 H15         10.3960    -5.9510     0.5530 hc         1 WY5       0.044700
     45 H16         11.1620    -7.0860    -0.6160 hc         1 WY5       0.044700
     46 H17         10.9910    -6.8930    -2.8180 hc         1 WY5       0.034533
     47 H18          9.3400    -6.3670    -3.1770 hc         1 WY5       0.034533
     48 H19         10.7110    -5.3300    -3.5990 hc         1 WY5       0.034533
     49 H20         11.2260    -3.7370    -0.5040 hc         1 WY5       0.034533
     50 H21         11.5280    -3.8150    -2.2450 hc         1 WY5       0.034533
     51 H22         12.3240    -4.9600    -1.1580 hc         1 WY5       0.034533
     52 H23          9.7300    -3.0100    -2.6060 ha         1 WY5       0.126000
     53 H24          8.6490    -0.8920    -2.8210 hc         1 WY5       0.046033
     54 H25          7.2210    -1.4410    -3.7100 hc         1 WY5       0.046033
     55 H26          7.0330    -0.6180    -2.1550 hc         1 WY5       0.046033
@<TRIPOS>BOND
     1    26    24 1
     2    30    29 1
     3    28    29 ar
     4    28    27 ar
     5    24    25 1
     6    24    27 1
     7    24    23 1
     8    29    16 ar
     9    27    18 ar
    10    23    22 1
    11    22    19 1
    12    16    12 1
    13    16    17 ar
    14    18    17 ar
    15    18    19 1
    16    11    10 1
    17    12    10 ar
    18    12    13 ar
    19    10     9 ar
    20    13    14 ar
    21    19    20 1
    22    19    21 1
    23     5     4 1
    24     9     8 ar
    25    14     8 ar
    26    14    15 1
    27     8     7 1
    28    15     3 2
    29     7     2 1
    30     3     2 1
    31     3     4 1
    32     2     1 2
    33     4     6 1
    34     9    31 1
    35    11    32 1
    36    13    33 1
    37    15    34 1
    38    17    35 1
    39    20    36 1
    40    20    37 1
    41    20    38 1
    42    21    39 1
    43    21    40 1
    44    21    41 1
    45    22    42 1
    46    22    43 1
    47    23    44 1
    48    23    45 1
    49    25    46 1
    50    25    47 1
    51    25    48 1
    52    26    49 1
    53    26    50 1
    54    26    51 1
    55    28    52 1
    56    30    53 1
    57    30    54 1
    58    30    55 1
@<TRIPOS>SUBSTRUCTURE
     1 WY5         1 TEMP              0 ****  ****    0 ROOT
