@<TRIPOS>MOLECULE
molecule
   52    56     1     0     0
SMALL
bcc


@<TRIPOS>ATOM
      1 C1           0.0000     0.0000     0.0000 ca         1 WYE      -0.317300
      2 N1           2.0730     0.0000     1.1220 nb         1 WYE      -0.712000
      3 C2          -0.5440     0.0060     9.1740 ca         1 WYE      -0.209000
      4 N2           1.9670     0.0010     3.5990 na         1 WYE      -0.160100
      5 O2          -0.7170     0.0030     6.6780 os         1 WYE      -0.216200
      6 C3          -2.6730     0.0060    10.3100 ca         1 WYE      -0.263000
      7 N3          -2.0690     0.0000     1.2600 nh         1 WYE      -0.617000
      8 C4           1.3820     0.0000     0.0000 ca         1 WYE       0.452200
      9 N4          -4.6870     0.0380     0.1430 n3         1 WYE      -0.719600
     10 C5           0.9470     0.0010     4.4950 cc         1 WYE      -0.042100
     11 C6           0.0810     0.0010     2.3920 ca         1 WYE      -0.177100
     12 C7          -2.5910     0.0030     7.9060 ca         1 WYE      -0.297600
     13 C8          -0.2480     0.0010     3.8290 cd         1 WYE      -0.143200
     14 C9          -0.6800    -0.0000     1.2160 ca         1 WYE       0.164600
     15 C10         -1.1860     0.0040     7.9460 ca         1 WYE       0.182100
     16 C11         -1.2840     0.0070    10.3490 ca         1 WYE       0.190100
     17 C12         -3.3320     0.0050     9.0940 ca         1 WYE       0.236100
     18 C13          1.4810     0.0010     2.3100 ca         1 WYE       0.466800
     19 C14         -2.9600     0.0020     6.4830 c          1 WYE       0.578900
     20 C15         -1.7260     0.0010     5.7770 cc         1 WYE      -0.103100
     21 C16         -1.5830     0.0010     4.4220 cf         1 WYE       0.036000
     22 C17         -2.6170    -1.1880     0.5920 c3         1 WYE       0.124300
     23 C18         -2.6150     1.2310     0.6710 c3         1 WYE       0.124300
     24 C19         -4.1410    -1.1930     0.7320 c3         1 WYE       0.161300
     25 C20         -4.1390     1.2260     0.8110 c3         1 WYE       0.161300
     26 C21          3.3890     0.0020     3.9530 c3         1 WYE       0.038600
     27 C22         -4.4370     0.0860    -1.3050 c3         1 WYE       0.142100
     28 H1          -0.5480     0.0000    -0.9340 ha         1 WYE       0.141000
     29 H2           0.5380     0.0070     9.2180 ha         1 WYE       0.151000
     30 H3          -3.2390     0.0070    11.2330 ha         1 WYE       0.153000
     31 HO3         -0.4690    -0.8800    11.8090 ho         1 WYE       0.430000
     32 H4           1.9100     0.0000    -0.9460 h4         1 WYE       0.025100
     33 HO4         -5.0180     0.7300     9.5560 ho         1 WYE       0.429000
     34 H5           1.0620    -0.0030     5.5720 h4         1 WYE       0.196000
     35 H16         -2.4590    -0.0000     3.7850 ha         1 WYE       0.192000
     36 H17         -2.2100    -2.0800     1.0530 h1         1 WYE       0.045200
     37 H17A        -2.3520    -1.1660    -0.4590 h1         1 WYE       0.045200
     38 H18         -2.2080     2.0900     1.1900 h1         1 WYE       0.045200
     39 H18A        -2.3500     1.2770    -0.3780 h1         1 WYE       0.045200
     40 H19         -4.5480    -2.0520     0.2120 h1         1 WYE       0.066450
     41 H19A        -4.4060    -1.2390     1.7810 h1         1 WYE       0.066450
     42 H20         -4.4040     1.2030     1.8610 h1         1 WYE       0.066450
     43 H20A        -4.5460     2.1180     0.3500 h1         1 WYE       0.066450
     44 H21          3.4950     0.1240     5.0240 h1         1 WYE       0.055700
     45 H21A         3.8370    -0.9380     3.6520 h1         1 WYE       0.055700
     46 H21B         3.8870     0.8190     3.4460 h1         1 WYE       0.055700
     47 H22         -4.8650     0.9930    -1.7150 h1         1 WYE       0.033033
     48 H22A        -3.3690     0.0750    -1.4870 h1         1 WYE       0.033033
     49 H22B        -4.8930    -0.7750    -1.7790 h1         1 WYE       0.033033
     50 O1          -4.0840     0.0000     6.0080 o          1 WYE      -0.503100
     51 O3          -0.6430     0.0080    11.5450 oh         1 WYE      -0.518100
     52 O4          -4.6880     0.0040     9.0530 oh         1 WYE      -0.491100
@<TRIPOS>BOND
     1     1     8 ar
     2     1    14 ar
     3     2     8 ar
     4     2    18 ar
     5    50    19 2
     6     3    15 ar
     7     3    16 ar
     8     4    10 1
     9     4    18 1
    10     4    26 1
    11     5    15 1
    12     5    20 1
    13     6    16 ar
    14     6    17 ar
    15     7    14 1
    16     7    22 1
    17     7    23 1
    18    51    16 1
    19     9    24 1
    20     9    25 1
    21     9    27 1
    22    52    17 1
    23    10    13 2
    24    11    13 1
    25    11    14 ar
    26    11    18 ar
    27    12    15 ar
    28    12    17 ar
    29    12    19 1
    30    13    21 1
    31    19    20 1
    32    20    21 2
    33    22    24 1
    34    23    25 1
    35     1    28 1
    36     3    29 1
    37     6    30 1
    38    51    31 1
    39     8    32 1
    40    52    33 1
    41    10    34 1
    42    21    35 1
    43    22    36 1
    44    22    37 1
    45    23    38 1
    46    23    39 1
    47    24    40 1
    48    24    41 1
    49    25    42 1
    50    25    43 1
    51    26    44 1
    52    26    45 1
    53    26    46 1
    54    27    47 1
    55    27    48 1
    56    27    49 1
@<TRIPOS>SUBSTRUCTURE
     1 WYE         1 TEMP              0 ****  ****    0 ROOT
