@<TRIPOS>MOLECULE
WYE
   52    56     1     0     0
SMALL
bcc


@<TRIPOS>ATOM
      1 C1           0.0000     0.0000     0.0000 ca         1 WYE      -0.284300
      2 N1           2.0730     0.0000     1.1220 nb         1 WYE      -0.574000
      3 C2          -0.5440     0.0060     9.1740 ca         1 WYE      -0.208000
      4 N2           1.9670     0.0010     3.5990 na         1 WYE       0.316900
      5 O2          -0.7170     0.0030     6.6780 os         1 WYE      -0.180200
      6 C3          -2.6730     0.0060    10.3100 ca         1 WYE      -0.271000
      7 N3          -2.0690     0.0000     1.2600 nh         1 WYE      -0.394000
      8 C4           1.3820     0.0000     0.0000 ca         1 WYE       0.422200
      9 N4          -4.6870     0.0380     0.1430 n3         1 WYE      -0.540600
     10 C5           0.9470     0.0010     4.4950 cc         1 WYE      -0.221100
     11 C6           0.0810     0.0010     2.3920 ca         1 WYE      -0.171100
     12 C7          -2.5910     0.0030     7.9060 ca         1 WYE      -0.331600
     13 C8          -0.2480     0.0010     3.8290 cd         1 WYE      -0.129200
     14 C9          -0.6800    -0.0000     1.2160 ca         1 WYE       0.093600
     15 C10         -1.1860     0.0040     7.9460 ca         1 WYE       0.196100
     16 C11         -1.2840     0.0070    10.3490 ca         1 WYE       0.219100
     17 C12         -3.3320     0.0050     9.0940 ca         1 WYE       0.275100
     18 C13          1.4810     0.0010     2.3100 ca         1 WYE       0.242800
     19 C14         -2.9600     0.0020     6.4830 c          1 WYE       0.639900
     20 C15         -1.7260     0.0010     5.7770 cc         1 WYE      -0.108100
     21 C16         -1.5830     0.0010     4.4220 cf         1 WYE       0.061000
     22 C17         -2.6170    -1.1880     0.5920 c3         1 WYE       0.102300
     23 C18         -2.6150     1.2310     0.6710 c3         1 WYE       0.102300
     24 C19         -4.1410    -1.1930     0.7320 c3         1 WYE       0.155300
     25 C20         -4.1390     1.2260     0.8110 c3         1 WYE       0.155300
     26 C21          3.3890     0.0020     3.9530 c3         1 WYE      -0.011400
     27 C22         -4.4370     0.0860    -1.3050 c3         1 WYE       0.168100
     28 H1          -0.5480     0.0000    -0.9340 ha         1 WYE       0.122000
     29 H2           0.5380     0.0070     9.2180 ha         1 WYE       0.124000
     30 H3          -3.2390     0.0070    11.2330 ha         1 WYE       0.130000
     31 HO3         -0.4840     0.8980    11.8150 ho         1 WYE       0.411000
     32 H4           1.9110     0.0000    -0.9460 h4         1 WYE      -0.020900
     33 HO4         -5.0170    -0.7190     9.5610 ho         1 WYE       0.409000
     34 H5           1.0620     0.0020     5.5720 h4         1 WYE       0.166000
     35 H16         -2.4590    -0.0000     3.7850 ha         1 WYE       0.149000
     36 H17         -2.3520    -1.1660    -0.4580 h1         1 WYE       0.022450
     37 H17A        -2.2100    -2.0800     1.0530 h1         1 WYE       0.022450
     38 H18         -2.2080     2.0900     1.1910 h1         1 WYE       0.022450
     39 H18A        -2.3490     1.2770    -0.3780 h1         1 WYE       0.022450
     40 H19         -4.5480    -2.0520     0.2120 h1         1 WYE       0.032700
     41 H19A        -4.4060    -1.2390     1.7810 h1         1 WYE       0.032700
     42 H20         -4.5460     2.1180     0.3500 h1         1 WYE       0.032700
     43 H20A        -4.4040     1.2030     1.8610 h1         1 WYE       0.032700
     44 H21          3.8670     0.8750     3.5250 h1         1 WYE       0.023700
     45 H21A         3.4930     0.0250     5.0310 h1         1 WYE       0.023700
     46 H21B         3.8590    -0.8940     3.5650 h1         1 WYE       0.023700
     47 H22         -3.3690     0.1100    -1.4860 h1         1 WYE       0.003700
     48 H22A        -4.8630    -0.7920    -1.7740 h1         1 WYE       0.003700
     49 H22B        -4.8940     0.9760    -1.7210 h1         1 WYE       0.003700
     50 O1          -4.0840     0.0000     6.0080 o          1 WYE      -0.540100
     51 O3          -0.6430     0.0080    11.5450 oh         1 WYE      -0.502100
     52 O4          -4.6880     0.0040     9.0530 oh         1 WYE      -0.474100
@<TRIPOS>BOND
     1     1     8 ar  
     2     1    14 ar  
     3     1    28 1   
     4     2     8 ar  
     5     2    18 ar  
     6     3    15 ar  
     7     3    16 ar  
     8     3    29 1   
     9     4    10 1   
    10     4    18 1   
    11     4    26 1   
    12     5    15 1   
    13     5    20 1   
    14     6    16 ar  
    15     6    17 ar  
    16     6    30 1   
    17     7    14 1   
    18     7    22 1   
    19     7    23 1   
    20     8    32 1   
    21     9    24 1   
    22     9    25 1   
    23     9    27 1   
    24    10    13 2   
    25    10    34 1   
    26    11    13 1   
    27    11    14 ar  
    28    11    18 ar  
    29    12    15 ar  
    30    12    17 ar  
    31    12    19 1   
    32    13    21 1   
    33    16    51 1   
    34    17    52 1   
    35    19    20 1   
    36    19    50 2   
    37    20    21 2   
    38    21    35 1   
    39    22    24 1   
    40    22    36 1   
    41    22    37 1   
    42    23    25 1   
    43    23    38 1   
    44    23    39 1   
    45    24    40 1   
    46    24    41 1   
    47    25    42 1   
    48    25    43 1   
    49    26    44 1   
    50    26    45 1   
    51    26    46 1   
    52    27    47 1   
    53    27    48 1   
    54    27    49 1   
    55    31    51 1   
    56    33    52 1   
@<TRIPOS>SUBSTRUCTURE
     1 WYE         1 TEMP              0 ****  ****    0 ROOT
