@<TRIPOS>MOLECULE
molecule
   46    50     1     0     0
SMALL
bcc


@<TRIPOS>ATOM
      1 C1           0.0000     0.0000     0.0000 c3         1 WYF       0.228700
      2 N1           4.0770     0.0000     4.7800 na         1 WYF      -0.045400
      3 O1           1.4290     0.0000     0.0000 os         1 WYF      -0.499900
      4 C2           2.5540    -0.0030     0.9680 ca         1 WYF       0.194100
      5 N2           5.8240     0.3850     6.8850 n7         1 WYF      -0.816200
      6 O2           9.4060    -0.3680     0.8930 o          1 WYF      -0.500100
      7 C3           1.6310     0.0050     2.0040 ca         1 WYF      -0.213000
      8 O3           6.3230    -1.8710     1.0700 os         1 WYF      -0.186200
      9 C4           2.0150     0.0060     3.3330 ca         1 WYF      -0.126000
     10 O4           6.6680    -5.3140    -2.3530 oh         1 WYF      -0.515100
     11 C5           3.3830     0.0000     3.6010 ca         1 WYF      -0.064200
     12 O5          10.2270    -2.3230    -1.3730 oh         1 WYF      -0.492100
     13 C6           4.3230    -0.0070     2.5440 ca         1 WYF      -0.044800
     14 C7           3.9230    -0.0090     1.2090 ca         1 WYF      -0.068000
     15 C8           5.6450    -0.0110     3.1730 cc         1 WYF      -0.150200
     16 C9           5.4220    -0.0050     4.5330 cd         1 WYF      -0.019300
     17 C10          3.5160    -0.0010     6.1420 c3         1 WYF       0.057300
     18 C11          4.6180    -0.4220     7.1200 c3         1 WYF       0.137800
     19 C12          6.4730    -0.0010     5.6180 c3         1 WYF       0.218000
     20 C13          6.9400    -0.0190     2.4960 ce         1 WYF       0.000000
     21 C14          7.1880    -0.9280     1.5120 cd         1 WYF      -0.059100
     22 C15          8.3980    -1.0460     0.7760 c          1 WYF       0.572900
     23 C16          8.1740    -2.1590    -0.1580 ca         1 WYF      -0.307600
     24 C17          8.9660    -2.7680    -1.1400 ca         1 WYF       0.237100
     25 C18          8.4560    -3.8250    -1.8710 ca         1 WYF      -0.272000
     26 C19          7.1630    -4.2770    -1.6300 ca         1 WYF       0.192100
     27 C20          6.3750    -3.6790    -0.6590 ca         1 WYF      -0.198000
     28 C21          6.8690    -2.6180     0.0850 ca         1 WYF       0.187100
     29 H1          -0.3610     0.0020    -1.0210 h1         1 WYF       0.029367
     30 H1A         -0.3610    -0.8860     0.5090 h1         1 WYF       0.029367
     31 H1B         -0.3610     0.8830     0.5130 h1         1 WYF       0.029367
     32 HN2          6.4650     0.2550     7.6420 hn         1 WYF       0.364800
     33 H3           0.5750     0.0090     1.7640 ha         1 WYF       0.146000
     34 H4           1.2840     0.0120     4.1320 ha         1 WYF       0.127000
     35 HO4          6.9560    -6.1280    -1.9730 ho         1 WYF       0.428000
     36 HO5         10.8330    -3.0410    -1.2980 ho         1 WYF       0.427000
     37 H7           4.6110     0.3140     0.4370 ha         1 WYF       0.153000
     38 H10          3.1690     0.9950     6.3920 h1         1 WYF       0.063700
     39 H10A         2.6940    -0.7040     6.1960 h1         1 WYF       0.063700
     40 H11          4.8520    -1.4690     6.9680 h1         1 WYF       0.047700
     41 H11A         4.2750    -0.2680     8.1360 h1         1 WYF       0.047700
     42 H12          7.2480     0.7150     5.3730 h1         1 WYF       0.058200
     43 H12A         6.9000    -0.9920     5.7150 h1         1 WYF       0.058200
     44 H13          7.7030     0.6960     2.7770 ha         1 WYF       0.167000
     45 H18          9.0520    -4.2800    -2.6530 ha         1 WYF       0.152000
     46 H20          5.3650    -4.0340    -0.4880 ha         1 WYF       0.160000
@<TRIPOS>BOND
     1     1     3 1
     2     2    11 1
     3     2    16 1
     4     2    17 1
     5     3     4 1
     6     4     7 ar
     7     4    14 ar
     8     5    18 1
     9     5    19 1
    10     6    22 2
    11     7     9 ar
    12     8    21 1
    13     8    28 1
    14     9    11 ar
    15    10    26 1
    16    11    13 ar
    17    12    24 1
    18    13    14 ar
    19    13    15 1
    20    15    16 2
    21    15    20 1
    22    16    19 1
    23    17    18 1
    24    20    21 2
    25    21    22 1
    26    22    23 1
    27    23    24 ar
    28    23    28 ar
    29    24    25 ar
    30    25    26 ar
    31    26    27 ar
    32    27    28 ar
    33     1    29 1
    34     1    30 1
    35     1    31 1
    36     5    32 1
    37     7    33 1
    38     9    34 1
    39    10    35 1
    40    12    36 1
    41    14    37 1
    42    17    38 1
    43    17    39 1
    44    18    40 1
    45    18    41 1
    46    19    42 1
    47    19    43 1
    48    20    44 1
    49    25    45 1
    50    27    46 1
@<TRIPOS>SUBSTRUCTURE
     1 WYF         1 TEMP              0 ****  ****    0 ROOT
