@<TRIPOS>MOLECULE
molecule
   60    62     1     0     0
SMALL
bcc


@<TRIPOS>ATOM
      1 C16          0.0000     0.0000     0.0000 c3         1 WYQ      -0.105600
      2 C15          1.5300     0.0000     0.0000 c3         1 WYQ       0.158100
      3 C17          2.0410     0.0000     1.4410 c3         1 WYQ      -0.105600
      4 O6           2.0140    -1.1850    -0.6850 os         1 WYQ      -0.425900
      5 C14          3.1970    -1.0850    -1.3210 c          1 WYQ       0.776100
      6 O5           3.8080    -0.0350    -1.3030 o          1 WYQ      -0.591000
      7 N5           3.7030    -2.1490    -1.9760 ns         1 WYQ      -0.637300
      8 S1           5.1570    -2.0240    -2.7570 sy         1 WYQ       1.433900
      9 O4           5.4250    -3.3050    -3.3110 o          1 WYQ      -0.611800
     10 O3           5.0950    -0.8380    -3.5360 o          1 WYQ      -0.611800
     11 C8           6.3880    -1.7470    -1.5270 ca         1 WYQ      -0.360500
     12 C7           6.7050    -0.4590    -1.1510 ca         1 WYQ       0.042000
     13 C9           7.0280    -2.8240    -0.9370 ca         1 WYQ       0.025000
     14 C10          7.9950    -2.6190     0.0280 ca         1 WYQ      -0.257000
     15 C11          8.3290    -1.3300     0.4140 ca         1 WYQ       0.245100
     16 O2           9.2780    -1.1270     1.3620 os         1 WYQ      -0.268900
     17 C12          9.8940    -2.2890     1.9230 c3         1 WYQ       0.123400
     18 C13         10.9290    -1.8640     2.9670 c3         1 WYQ      -0.090100
     19 C6           7.6750    -0.2380    -0.1720 ca         1 WYQ      -0.193900
     20 C5           8.0190     1.1390     0.2340 cc         1 WYQ       0.512500
     21 N4           7.3740     2.1890    -0.3610 ns         1 WYQ      -0.453400
     22 C4           7.6680     3.4590    -0.0090 c          1 WYQ       0.725100
     23 O1           7.0990     4.4010    -0.5340 o          1 WYQ      -0.646500
     24 N3           8.9310     1.3200     1.1590 nd         1 WYQ      -0.575100
     25 C2           9.2780     2.5580     1.5640 cd         1 WYQ       0.002100
     26 C3           8.6540     3.6710     0.9840 cc         1 WYQ      -0.191900
     27 N2           9.1910     4.7810     1.5720 na         1 WYQ       0.105400
     28 C18          8.8330     6.1710     1.2780 c3         1 WYQ       0.066600
     29 N1          10.1450     4.3560     2.5050 nc         1 WYQ      -0.475800
     30 C1          10.1960     3.0500     2.5100 cd         1 WYQ       0.363600
     31 C19         11.0980     2.2100     3.3770 c3         1 WYQ      -0.093700
     32 C20         10.3880     1.8910     4.6940 c3         1 WYQ      -0.082400
     33 C21         11.3040     1.0380     5.5740 c3         1 WYQ      -0.093100
     34 H1          -0.3610    -0.1580    -1.0090 hc         1 WYQ       0.050033
     35 H2          -0.3610    -0.7950     0.6410 hc         1 WYQ       0.050033
     36 H3          -0.3610     0.9530     0.3680 hc         1 WYQ       0.050033
     37 H4           1.8910     0.8850    -0.5110 h1         1 WYQ       0.077700
     38 H5           3.0720     0.3330     1.4590 hc         1 WYQ       0.050033
     39 H6           1.9780    -1.0030     1.8470 hc         1 WYQ       0.050033
     40 H7           1.4350     0.6700     2.0390 hc         1 WYQ       0.050033
     41 H8           3.1810    -3.0010    -2.0230 hn         1 WYQ       0.355500
     42 H9           6.1950     0.3810    -1.6090 ha         1 WYQ       0.170000
     43 H10          6.7710    -3.8330    -1.2340 ha         1 WYQ       0.151000
     44 H11          8.4910    -3.4660     0.4850 ha         1 WYQ       0.148000
     45 H12         10.3830    -2.8530     1.1380 h1         1 WYQ       0.036700
     46 H13          9.1380    -2.9060     2.3940 h1         1 WYQ       0.036700
     47 H14         11.5740    -2.7030     3.1980 hc         1 WYQ       0.051367
     48 H15         10.4220    -1.5380     3.8670 hc         1 WYQ       0.051367
     49 H16         11.5250    -1.0490     2.5730 hc         1 WYQ       0.051367
     50 H17          6.6800     2.0140    -1.0610 hn         1 WYQ       0.352500
     51 H18          8.8500     6.3300     0.2060 h1         1 WYQ       0.063033
     52 H19          9.5450     6.8360     1.7530 h1         1 WYQ       0.063033
     53 H20          7.8390     6.3760     1.6570 h1         1 WYQ       0.063033
     54 H21         11.3370     1.2870     2.8620 hc         1 WYQ       0.061700
     55 H22         12.0120     2.7550     3.5820 hc         1 WYQ       0.061700
     56 H23          9.4740     1.3460     4.4880 hc         1 WYQ       0.050200
     57 H24         10.1490     2.8140     5.2080 hc         1 WYQ       0.050200
     58 H25         11.6670     1.6350     6.4020 hc         1 WYQ       0.033033
     59 H26         10.7500     0.1890     5.9560 hc         1 WYQ       0.033033
     60 H27         12.1440     0.6860     4.9860 hc         1 WYQ       0.033033
@<TRIPOS>BOND
     1     1     2 1
     2     2     3 1
     3     4     2 1
     4     4     5 1
     5     5     6 2
     6     7     5 1
     7     7     8 1
     8     8     9 2
     9     8    10 2
    10    11    13 ar
    11    11     8 1
    12    12    11 ar
    13    14    13 ar
    14    15    14 ar
    15    16    15 1
    16    16    17 1
    17    17    18 1
    18    19    12 ar
    19    19    15 ar
    20    20    19 1
    21    21    20 1
    22    22    21 1
    23    23    22 2
    24    24    20 2
    25    25    24 1
    26    26    22 1
    27    26    25 2
    28    27    26 1
    29    28    27 1
    30    29    27 1
    31    29    30 2
    32    30    31 1
    33    30    25 1
    34    32    31 1
    35    32    33 1
    36     1    34 1
    37     1    35 1
    38     1    36 1
    39     2    37 1
    40     3    38 1
    41     3    39 1
    42     3    40 1
    43     7    41 1
    44    12    42 1
    45    13    43 1
    46    14    44 1
    47    17    45 1
    48    17    46 1
    49    18    47 1
    50    18    48 1
    51    18    49 1
    52    21    50 1
    53    28    51 1
    54    28    52 1
    55    28    53 1
    56    31    54 1
    57    31    55 1
    58    32    56 1
    59    32    57 1
    60    33    58 1
    61    33    59 1
    62    33    60 1
@<TRIPOS>SUBSTRUCTURE
     1 WYQ         1 TEMP              0 ****  ****    0 ROOT
