@<TRIPOS>MOLECULE
molecule
   48    49     1     0     0
SMALL
bcc


@<TRIPOS>ATOM
      1 O41          0.0000     0.0000     0.0000 oh         1 WZ1      -0.599800
      2 C41          1.4290     0.0000     0.0000 c3         1 WZ1       0.135100
      3 C51          1.9400     0.0000     1.4440 c3         1 WZ1       0.151100
      4 C61          1.4830    -1.2800     2.1460 c3         1 WZ1       0.149400
      5 O61          1.8590    -1.2270     3.5240 oh         1 WZ1      -0.603800
      6 O01          3.3670     0.0590     1.4420 os         1 WZ1      -0.417600
      7 C11          3.9020     1.2340     0.8290 c3         1 WZ1       0.304900
      8 O11          3.4130     2.3910     1.5090 os         1 WZ1      -0.443600
      9 C71          3.9440     2.5600     2.8260 c3         1 WZ1       0.128700
     10 C21          3.4700     1.2840    -0.6380 c3         1 WZ1       0.124100
     11 O21          4.0040     0.1540    -1.3330 oh         1 WZ1      -0.580800
     12 C31          1.9410     1.2550    -0.7140 c3         1 WZ1       0.022400
     13 S12          1.4190     1.2200    -2.4500 ss         1 WZ1      -0.280200
     14 C12          1.9760     2.8290    -3.0770 c3         1 WZ1       0.232200
     15 O02          3.4030     2.8440    -3.1490 os         1 WZ1      -0.387600
     16 C52          3.9510     4.0810    -3.6080 c3         1 WZ1       0.127100
     17 C62          3.5120     5.2110    -2.6750 c3         1 WZ1       0.099400
     18 O62          4.1070     5.0260    -1.3890 oh         1 WZ1      -0.602800
     19 C42          3.4470     4.3660    -5.0260 c3         1 WZ1       0.106100
     20 O42          3.9020     3.3380    -5.9090 oh         1 WZ1      -0.585800
     21 C32          1.9160     4.3950    -5.0200 c3         1 WZ1       0.119100
     22 O32          1.4620     5.4640    -4.1870 oh         1 WZ1      -0.598800
     23 C22          1.3930     3.0620    -4.4740 c3         1 WZ1       0.127100
     24 O22         -0.0330     3.1050    -4.3950 oh         1 WZ1      -0.587800
     25 HO41        -0.3140    -0.6390    -0.6180 ho         1 WZ1       0.409000
     26 H41          1.7960    -0.8810    -0.5120 h1         1 WZ1       0.067700
     27 H51          1.5450     0.8640     1.9650 h1         1 WZ1       0.073700
     28 H61          1.9510    -2.1370     1.6760 h1         1 WZ1       0.034700
     29 H61A         0.4060    -1.3700     2.0690 h1         1 WZ1       0.034700
     30 HO61         1.5270    -1.9880     3.9700 ho         1 WZ1       0.400000
     31 H11          4.9840     1.2080     0.8840 h2         1 WZ1       0.072700
     32 H71          4.6490     3.3820     2.8280 h1         1 WZ1       0.036367
     33 H71A         3.1370     2.7750     3.5160 h1         1 WZ1       0.036367
     34 H71B         4.4480     1.6510     3.1310 h1         1 WZ1       0.036367
     35 H21          3.8360     2.1980    -1.0900 h1         1 WZ1       0.087700
     36 HO21         4.9170     0.3000    -1.5150 ho         1 WZ1       0.405000
     37 H31          1.5390     2.1350    -0.2270 h1         1 WZ1       0.103700
     38 H12          1.6410     3.6160    -2.4120 h2         1 WZ1       0.084700
     39 H52          5.0320     4.0140    -3.6180 h1         1 WZ1       0.087700
     40 H62          2.4330     5.2020    -2.5790 h1         1 WZ1       0.055200
     41 H62A         3.8290     6.1620    -3.0860 h1         1 WZ1       0.055200
     42 HO62         4.4350     5.8520    -1.0730 ho         1 WZ1       0.401000
     43 H42          3.8240     5.3260    -5.3560 h1         1 WZ1       0.042700
     44 HO42         4.4430     3.7180    -6.5820 ho         1 WZ1       0.404000
     45 H32          1.5530     4.5380    -6.0300 h1         1 WZ1       0.046700
     46 HO32         0.9040     6.0360    -4.6870 ho         1 WZ1       0.409000
     47 H22          1.7000     2.2580    -5.1320 h1         1 WZ1       0.075700
     48 HO22        -0.4010     2.5590    -5.0690 ho         1 WZ1       0.405000
@<TRIPOS>BOND
     1     1     2 1
     2     2     3 1
     3     2    12 1
     4     3     4 1
     5     3     6 1
     6     4     5 1
     7     6     7 1
     8     7     8 1
     9     7    10 1
    10     8     9 1
    11    10    11 1
    12    10    12 1
    13    12    13 1
    14    13    14 1
    15    14    15 1
    16    14    23 1
    17    15    16 1
    18    16    17 1
    19    16    19 1
    20    17    18 1
    21    19    20 1
    22    19    21 1
    23    21    22 1
    24    21    23 1
    25    23    24 1
    26     1    25 1
    27     2    26 1
    28     3    27 1
    29     4    28 1
    30     4    29 1
    31     5    30 1
    32     7    31 1
    33     9    32 1
    34     9    33 1
    35     9    34 1
    36    10    35 1
    37    11    36 1
    38    12    37 1
    39    14    38 1
    40    16    39 1
    41    17    40 1
    42    17    41 1
    43    18    42 1
    44    19    43 1
    45    20    44 1
    46    21    45 1
    47    22    46 1
    48    23    47 1
    49    24    48 1
@<TRIPOS>SUBSTRUCTURE
     1 WZ1         1 TEMP              0 ****  ****    0 ROOT
