@<TRIPOS>MOLECULE
WZ1
   48    49     1     0     0
SMALL
bcc


@<TRIPOS>ATOM
      1 O41         0.1000   -0.1860   -0.2420 oh        1 WZ1     -0.593800
      2 C41         1.5100   -0.0590   -0.1380 c3        1 WZ1      0.133100
      3 C51         1.8110   -0.0120    1.3720 c3        1 WZ1      0.111100
      4 C61         1.4190   -1.3280    2.0490 c3        1 WZ1      0.140400
      5 O61         1.6080   -1.2580    3.4460 oh        1 WZ1     -0.597800
      6 O01         3.2120    0.1380    1.6040 os        1 WZ1     -0.440600
      7 C11         3.8050    1.2710    1.0090 c3        1 WZ1      0.336900
      8 O11         3.2650    2.4030    1.6680 os        1 WZ1     -0.452600
      9 C71         3.6970    2.5370    3.0150 c3        1 WZ1      0.121700
     10 C21         3.5070    1.4400   -0.4950 c3        1 WZ1      0.128100
     11 O21         4.3440    0.5020   -1.1470 oh        1 WZ1     -0.590800
     12 C31         2.0230    1.2240   -0.7890 c3        1 WZ1     -0.047600
     13 S12         1.6830    1.1180   -2.5430 ss        1 WZ1     -0.313200
     14 C12         2.0740    2.7640   -3.1170 c3        1 WZ1      0.189200
     15 O02         3.4860    2.7760   -3.2640 os        1 WZ1     -0.382600
     16 C52         4.0360    3.9990   -3.7380 c3        1 WZ1      0.142100
     17 C62         3.9560    5.1120   -2.6880 c3        1 WZ1      0.095400
     18 O62         4.4570    4.5760   -1.4750 oh        1 WZ1     -0.595800
     19 C42         3.3850    4.4860   -5.0430 c3        1 WZ1      0.116100
     20 O42         3.9540    3.7120   -6.0860 oh        1 WZ1     -0.583800
     21 C32         1.8520    4.3490   -5.0560 c3        1 WZ1      0.121100
     22 O32         1.3380    5.4470   -4.3200 oh        1 WZ1     -0.606800
     23 C22         1.3910    3.0050   -4.4640 c3        1 WZ1      0.096100
     24 O22        -0.0170    3.1140   -4.3290 oh        1 WZ1     -0.608800
     25 HO41       -0.1150   -0.1620   -1.1840 ho        1 WZ1      0.413000
     26 H41         2.0180   -0.9490   -0.6060 h1        1 WZ1      0.072700
     27 H51         1.2650    0.8520    1.8420 h1        1 WZ1      0.075700
     28 H61         0.3210   -1.5060    1.9010 h1        1 WZ1      0.062200
     29 H61A        2.0150   -2.1750    1.6160 h1        1 WZ1      0.062200
     30 HO61        2.5400   -1.0510    3.5940 ho        1 WZ1      0.409000
     31 H11         4.9090    1.1430    1.1920 h2        1 WZ1      0.098700
     32 H71         3.1470    3.4330    3.3940 h1        1 WZ1      0.039700
     33 H71A        4.8010    2.7040    3.0530 h1        1 WZ1      0.039700
     34 H71B        3.4240    1.6260    3.6030 h1        1 WZ1      0.039700
     35 H21         3.7930    2.4890   -0.8090 h1        1 WZ1      0.095700
     36 HO21        4.2260    0.6540   -2.0990 ho        1 WZ1      0.431000
     37 H31         1.4620    2.0970   -0.3620 h1        1 WZ1      0.097700
     38 H12         1.7530    3.5350   -2.3690 h2        1 WZ1      0.080700
     39 H52         5.1130    3.7200   -3.9300 h1        1 WZ1      0.112700
     40 H62         2.8960    5.4590   -2.5590 h1        1 WZ1      0.043200
     41 H62A        4.5910    5.9780   -3.0160 h1        1 WZ1      0.043200
     42 HO62        4.3460    5.2620   -0.8060 ho        1 WZ1      0.406000
     43 H42         3.6390    5.5750   -5.1910 h1        1 WZ1      0.062700
     44 HO42        3.6440    4.0900   -6.9190 ho        1 WZ1      0.406000
     45 H32         1.4780    4.4100   -6.1180 h1        1 WZ1      0.051700
     46 HO32        0.3840    5.3090   -4.2400 ho        1 WZ1      0.431000
     47 H22         1.6530    2.1750   -5.1780 h1        1 WZ1      0.080700
     48 HO22       -0.3190    2.3230   -3.8600 ho        1 WZ1      0.427000
@<TRIPOS>BOND
     1    1    2 1   
     2    1   25 1   
     3    2    3 1   
     4    2   12 1   
     5    2   26 1   
     6    3    4 1   
     7    3    6 1   
     8    3   27 1   
     9    4    5 1   
    10    4   28 1   
    11    4   29 1   
    12    5   30 1   
    13    6    7 1   
    14    7    8 1   
    15    7   10 1   
    16    7   31 1   
    17    8    9 1   
    18    9   32 1   
    19    9   33 1   
    20    9   34 1   
    21   10   11 1   
    22   10   12 1   
    23   10   35 1   
    24   11   36 1   
    25   12   13 1   
    26   12   37 1   
    27   13   14 1   
    28   14   15 1   
    29   14   23 1   
    30   14   38 1   
    31   15   16 1   
    32   16   17 1   
    33   16   19 1   
    34   16   39 1   
    35   17   18 1   
    36   17   40 1   
    37   17   41 1   
    38   18   42 1   
    39   19   20 1   
    40   19   21 1   
    41   19   43 1   
    42   20   44 1   
    43   21   22 1   
    44   21   23 1   
    45   21   45 1   
    46   22   46 1   
    47   23   24 1   
    48   23   47 1   
    49   24   48 1   
@<TRIPOS>SUBSTRUCTURE
     1 WZ1         1 TEMP              0 ****  ****    0 ROOT
