@<TRIPOS>MOLECULE
molecule
   54    57     1     0     0
SMALL
bcc


@<TRIPOS>ATOM
      1 C1           0.0000     0.0000     0.0000 ca         1 WZA      -0.036900
      2 O1           0.1460    -2.1990    -1.4250 o          1 WZA      -0.527800
      3 O2          -1.4880    -1.1800    -3.0180 o          1 WZA      -0.527800
      4 C2           1.3910     0.0000     0.0000 ca         1 WZA       0.208100
      5 C3           2.0740     0.0000     1.2030 ca         1 WZA      -0.207000
      6 C4           1.3820     0.0000     2.4080 ca         1 WZA       0.031700
      7 S1          -0.9950    -1.3990    -1.7040 s6         1 WZA       1.452400
      8 N1          -2.2290    -2.0090    -0.7810 nz         1 WZA      -0.824500
      9 O3          -0.6840    -0.0060    -1.1760 os         1 WZA      -0.373800
     10 C5           0.0040     0.0110     2.4090 ca         1 WZA      -0.078300
     11 C6          -0.6840     0.0010     1.2010 ca         1 WZA      -0.140000
     12 O4           2.0760    -0.0010    -1.1740 os         1 WZA      -0.308900
     13 C7           3.5030    -0.0020    -1.0940 c3         1 WZA       0.123700
     14 C8           2.1760    -0.0270     3.6820 c3         1 WZA      -0.037400
     15 C10          0.0360    -0.3330     4.8900 c3         1 WZA      -0.077400
     16 C11         -0.8120     0.0410     3.6750 c3         1 WZA      -0.037100
     17 C12          3.4780     0.7520     3.5550 c3         1 WZA      -0.075400
     18 C13          4.2670     0.7090     4.8780 c3         1 WZA      -0.062400
     19 C14          3.3710     1.2630     5.9660 c3         1 WZA      -0.072000
     20 C15          3.9470     1.3040     7.3770 c3         1 WZA       0.158100
     21 C16          2.8850     2.6580     5.5700 c3         1 WZA      -0.079100
     22 C17          2.1450     0.3170     6.1080 c3         1 WZA      -0.071700
     23 C18          1.5090     0.8320     7.4020 c3         1 WZA      -0.073400
     24 C19          2.7370     1.0830     8.3190 c3         1 WZA      -0.104400
     25 CAW          1.3230     0.4910     4.8470 c3         1 WZA      -0.061700
     26 OAF          4.5470     2.5750     7.6300 oh         1 WZA      -0.598800
     27 H6          -1.7670     0.0010     1.2010 ha         1 WZA       0.120000
     28 H3           3.1570    -0.0000     1.2060 ha         1 WZA       0.174000
     29 H8           2.4290    -1.0590     3.8910 hc         1 WZA       0.074700
     30 H11N        -2.8470    -1.2670    -0.5190 hn         1 WZA       0.492467
     31 H12N        -1.8510    -2.4340     0.0420 hn         1 WZA       0.492467
     32 H111        -1.6300    -0.6620     3.5850 hc         1 WZA       0.056700
     33 H112        -1.2090     1.0390     3.8160 hc         1 WZA       0.056700
     34 H71C         3.8360     0.8830    -0.5660 h1         1 WZA       0.060033
     35 H72C         3.8350    -0.8860    -0.5630 h1         1 WZA       0.060033
     36 H73C         3.9210    -0.0030    -2.0940 h1         1 WZA       0.060033
     37 H121         3.2530     1.7830     3.3090 hc         1 WZA       0.048700
     38 H122         4.0790     0.3140     2.7680 hc         1 WZA       0.048700
     39 HAW          1.0880     1.5380     4.6980 hc         1 WZA       0.078700
     40 H101         0.2880    -1.3850     4.8330 hc         1 WZA       0.059200
     41 H102        -0.5110    -0.0870     5.7920 hc         1 WZA       0.059200
     42 H131         4.5350    -0.3150     5.1110 hc         1 WZA       0.053700
     43 H132         5.1580     1.3180     4.7930 hc         1 WZA       0.053700
     44 H15          4.6710     0.5090     7.5080 h1         1 WZA       0.038700
     45 H161         3.7370     3.3140     5.4400 hc         1 WZA       0.044033
     46 H162         2.2410     3.0500     6.3480 hc         1 WZA       0.044033
     47 H163         2.3320     2.5970     4.6400 hc         1 WZA       0.044033
     48 H17          2.4670    -0.7110     6.2200 hc         1 WZA       0.059700
     49 H191         2.9120     0.2190     8.9490 hc         1 WZA       0.059200
     50 H192         2.5730     1.9660     8.9250 hc         1 WZA       0.059200
     51 HAF          5.3150     2.4600     8.1650 ho         1 WZA       0.407000
     52 H181         0.8590     0.0800     7.8330 hc         1 WZA       0.050200
     53 H182         0.9720     1.7560     7.2220 hc         1 WZA       0.050200
     54 H13         -2.7330    -2.6930    -1.3090 hn         1 WZA       0.492467
@<TRIPOS>BOND
     1     1     4 ar
     2     1     9 1
     3     1    11 ar
     4     2     7 2
     5     3     7 2
     6     4     5 ar
     7     4    12 1
     8     5     6 ar
     9     6    10 ar
    10     6    14 1
    11     7     8 1
    12     7     9 1
    13    10    11 ar
    14    10    16 1
    15    12    13 1
    16    14    17 1
    17    14    25 1
    18    15    16 1
    19    15    25 1
    20    17    18 1
    21    18    19 1
    22    19    20 1
    23    19    21 1
    24    19    22 1
    25    20    24 1
    26    20    26 1
    27    22    23 1
    28    22    25 1
    29    23    24 1
    30    11    27 1
    31     5    28 1
    32    14    29 1
    33     8    30 1
    34     8    31 1
    35    16    32 1
    36    16    33 1
    37    13    34 1
    38    13    35 1
    39    13    36 1
    40    17    37 1
    41    17    38 1
    42    25    39 1
    43    15    40 1
    44    15    41 1
    45    18    42 1
    46    18    43 1
    47    20    44 1
    48    21    45 1
    49    21    46 1
    50    21    47 1
    51    22    48 1
    52    24    49 1
    53    24    50 1
    54    26    51 1
    55    23    52 1
    56    23    53 1
    57    54     8 1
@<TRIPOS>SUBSTRUCTURE
     1 WZA         1 TEMP              0 ****  ****    0 ROOT
