@<TRIPOS>MOLECULE
molecule
   62    65     1     0     0
SMALL
bcc


@<TRIPOS>ATOM
      1 OAH          0.0000     0.0000     0.0000 o          1 WZB      -0.520800
      2 SBD          1.4210     0.0000     0.0000 s6         1 WZB       1.488400
      3 OAG          2.1980     0.0000     1.1900 o          1 WZB      -0.520800
      4 NAD          1.8890    -1.3350    -0.8630 nz         1 WZB      -0.830500
      5 OAS          1.8520     1.2240    -0.7950 os         1 WZB      -0.505500
      6 CAX          1.0370     1.4900    -1.9380 c3         1 WZB       0.148100
      7 CAM         -0.0410     2.5490    -1.5940 c3         1 WZB      -0.088400
      8 CAO          0.1630     3.7210    -2.5930 c3         1 WZB      -0.072400
      9 CBB          1.8740     2.1130    -3.0500 c3         1 WZB      -0.087000
     10 CBA          0.8650     3.0460    -3.7760 c3         1 WZB      -0.059700
     11 CAB          2.9980     2.9510    -2.4380 c3         1 WZB      -0.087100
     12 CAQ          2.4610     1.1660    -4.0750 c3         1 WZB      -0.072400
     13 CAP          3.2450     2.0120    -5.0970 c3         1 WZB      -0.072400
     14 CAY          2.3410     3.0600    -5.7310 c3         1 WZB      -0.033400
     15 CAZ          1.6870     3.9530    -4.6690 c3         1 WZB      -0.062700
     16 CAN          0.8160     4.9810    -5.3910 c3         1 WZB      -0.075400
     17 CAL          1.7380     5.9630    -6.1140 c3         1 WZB      -0.039100
     18 CAU          2.7880     5.2390    -6.9140 ca         1 WZB      -0.045300
     19 CAI          3.4870     5.9670    -7.8670 ca         1 WZB      -0.167000
     20 CAW          3.0750     3.9010    -6.7350 ca         1 WZB      -0.024300
     21 CAJ          4.0640     3.2980    -7.5000 ca         1 WZB      -0.106000
     22 CAT          4.7610     4.0210    -8.4440 ca         1 WZB      -0.007300
     23 CAK          5.8330     3.3560    -9.2680 c3         1 WZB      -0.061100
     24 CAA          5.1950     2.6730   -10.4800 c3         1 WZB      -0.094100
     25 CAV          4.4710     5.3640    -8.6320 ca         1 WZB       0.027100
     26 OAR          5.1480     6.0860    -9.5640 os         1 WZB      -0.400800
     27 SBC          4.4110     6.2360   -10.8870 s6         1 WZB       1.476400
     28 OAF          5.3640     6.7190   -11.8240 o          1 WZB      -0.522300
     29 OAE          3.6750     5.0350   -11.0750 o          1 WZB      -0.522300
     30 NAC          3.2950     7.4430   -10.6910 nz         1 WZB      -0.829500
     31 HAD1         2.8190    -1.2010    -1.2070 hn         1 WZB       0.496467
     32 HAD2         1.2640    -1.4700    -1.6330 hn         1 WZB       0.496467
     33 HAX          0.5660     0.5800    -2.2910 h1         1 WZB       0.040700
     34 HAM1         0.0960     2.9000    -0.5780 hc         1 WZB       0.085200
     35 HAM2        -1.0300     2.1250    -1.7180 hc         1 WZB       0.085200
     36 HAO1        -0.7910     4.1320    -2.8990 hc         1 WZB       0.072700
     37 HAO2         0.7970     4.4860    -2.1600 hc         1 WZB       0.072700
     38 HBA          0.1610     2.4660    -4.3600 hc         1 WZB       0.068700
     39 HAB1         2.5780     3.8360    -1.9750 hc         1 WZB       0.056367
     40 HAB2         3.6940     3.2450    -3.2140 hc         1 WZB       0.056367
     41 HAB3         3.5180     2.3650    -1.6890 hc         1 WZB       0.056367
     42 HAQ1         1.6640     0.6300    -4.5780 hc         1 WZB       0.037700
     43 HAQ2         3.1300     0.4680    -3.5880 hc         1 WZB       0.037700
     44 HAZ          2.4490     4.4560    -4.0860 hc         1 WZB       0.076700
     45 HAP1         4.0510     2.5180    -4.5800 hc         1 WZB       0.064200
     46 HAP2         3.6120     1.3560    -5.8780 hc         1 WZB       0.064200
     47 HAY          1.5500     2.5390    -6.2550 hc         1 WZB       0.074700
     48 HAN1         0.2000     4.4710    -6.1210 hc         1 WZB       0.064200
     49 HAN2         0.2280     5.5220    -4.6590 hc         1 WZB       0.064200
     50 HAL1         2.2350     6.5770    -5.3720 hc         1 WZB       0.065700
     51 HAL2         1.1390     6.5580    -6.7940 hc         1 WZB       0.065700
     52 HAI          3.2600     7.0160    -8.0140 ha         1 WZB       0.113000
     53 HAJ          4.2900     2.2490    -7.3530 ha         1 WZB       0.163000
     54 HAK1         6.5440     4.1000    -9.6050 hc         1 WZB       0.071700
     55 HAK2         6.3450     2.6160    -8.6650 hc         1 WZB       0.071700
     56 HAA1         5.5020     1.6340   -10.5120 hc         1 WZB       0.052033
     57 HAA2         4.1160     2.7290   -10.3990 hc         1 WZB       0.052033
     58 HAA3         5.5160     3.1730   -11.3860 hc         1 WZB       0.052033
     59 HAC1         3.1300     7.8910   -11.5710 hn         1 WZB       0.497133
     60 HAC2         2.4380     7.0530   -10.3500 hn         1 WZB       0.497133
     61 HAD3         1.8730    -2.1390    -0.2670 hn         1 WZB       0.496467
     62 HAC3         3.6400     8.1140   -10.0340 hn         1 WZB       0.497133
@<TRIPOS>BOND
     1     1     2 2
     2     2     3 2
     3     2     4 1
     4     2     5 1
     5     5     6 1
     6     6     7 1
     7     6     9 1
     8     7     8 1
     9     8    10 1
    10     9    10 1
    11     9    11 1
    12     9    12 1
    13    10    15 1
    14    12    13 1
    15    13    14 1
    16    14    15 1
    17    14    20 1
    18    15    16 1
    19    16    17 1
    20    17    18 1
    21    18    19 ar
    22    18    20 ar
    23    19    25 ar
    24    20    21 ar
    25    21    22 ar
    26    22    23 1
    27    22    25 ar
    28    23    24 1
    29    25    26 1
    30    26    27 1
    31    27    28 2
    32    27    29 2
    33    27    30 1
    34     4    31 1
    35     4    32 1
    36     6    33 1
    37     7    34 1
    38     7    35 1
    39     8    36 1
    40     8    37 1
    41    10    38 1
    42    11    39 1
    43    11    40 1
    44    11    41 1
    45    12    42 1
    46    12    43 1
    47    15    44 1
    48    13    45 1
    49    13    46 1
    50    14    47 1
    51    16    48 1
    52    16    49 1
    53    17    50 1
    54    17    51 1
    55    19    52 1
    56    21    53 1
    57    23    54 1
    58    23    55 1
    59    24    56 1
    60    24    57 1
    61    24    58 1
    62    30    59 1
    63    30    60 1
    64    61     4 1
    65    62    30 1
@<TRIPOS>SUBSTRUCTURE
     1 WZB         1 TEMP              0 ****  ****    0 ROOT
