@<TRIPOS>MOLECULE
molecule
   54    57     1     0     0
SMALL
bcc


@<TRIPOS>ATOM
      1 OAD          0.0000     0.0000     0.0000 o          1 WZC      -0.530300
      2 SAZ          1.4210     0.0000     0.0000 s6         1 WZC       1.488400
      3 OAE          2.1970     0.0000     1.1900 o          1 WZC      -0.530300
      4 NAC          1.8880    -1.3340    -0.8630 nz         1 WZC      -0.830500
      5 OAP          1.8510     1.2250    -0.7950 os         1 WZC      -0.497500
      6 CAV          1.0360     1.4920    -1.9380 c3         1 WZC       0.144100
      7 CAK         -0.0420     2.5500    -1.5930 c3         1 WZC      -0.090400
      8 CAM          0.1630     3.7240    -2.5900 c3         1 WZC      -0.072400
      9 CAX          0.8630     3.0490    -3.7740 c3         1 WZC      -0.055700
     10 CAW          1.6840     3.9570    -4.6670 c3         1 WZC      -0.061700
     11 CAJ          0.8110     4.9840    -5.3890 c3         1 WZC      -0.074400
     12 CAI          1.7280     5.9640    -6.1170 c3         1 WZC      -0.029100
     13 CAR          2.7740     5.2390    -6.9220 ca         1 WZC      -0.097300
     14 CAG          3.4590     5.9640    -7.8910 ca         1 WZC      -0.126000
     15 CAQ          4.4390     5.3660    -8.6590 ca         1 WZC       0.095100
     16 OAF          5.1000     6.0840    -9.6060 oh         1 WZC      -0.499100
     17 CAS          4.7450     4.0220    -8.4600 ca         1 WZC       0.130100
     18 OAO          5.7120     3.4230    -9.2050 os         1 WZC      -0.303900
     19 CAA          5.9690     2.0410    -8.9440 c3         1 WZC       0.126700
     20 CAH          4.0600     3.3010    -7.4990 ca         1 WZC      -0.219000
     21 CAT          3.0700     3.9060    -6.7350 ca         1 WZC      -0.055300
     22 CAU          2.3390     3.0650    -5.7290 c3         1 WZC      -0.017400
     23 CAL          3.2430     2.0170    -5.0960 c3         1 WZC      -0.070400
     24 CAN          2.4580     1.1700    -4.0750 c3         1 WZC      -0.072400
     25 CAY          1.8720     2.1150    -3.0480 c3         1 WZC      -0.086000
     26 CAB          2.9970     2.9530    -2.4360 c3         1 WZC      -0.086100
     27 HAC1         1.8530    -2.1420    -0.2740 hn         1 WZC       0.495467
     28 HAC2         1.2720    -1.4610    -1.6410 hn         1 WZC       0.495467
     29 HAV          0.5650     0.5820    -2.2910 h1         1 WZC       0.035700
     30 HAK1         0.0950     2.9000    -0.5760 hc         1 WZC       0.077700
     31 HAK2        -1.0310     2.1260    -1.7170 hc         1 WZC       0.077700
     32 HAM1         0.7970     4.4870    -2.1560 hc         1 WZC       0.071700
     33 HAM2        -0.7920     4.1350    -2.8950 hc         1 WZC       0.071700
     34 HAX          0.1580     2.4690    -4.3580 hc         1 WZC       0.064700
     35 HAW          2.4460     4.4610    -4.0840 hc         1 WZC       0.072700
     36 HAJ1         0.2250     5.5260    -4.6570 hc         1 WZC       0.052200
     37 HAJ2         0.1920     4.4720    -6.1160 hc         1 WZC       0.052200
     38 HAU          1.5480     2.5420    -6.2520 hc         1 WZC       0.058700
     39 HAI1         1.1260     6.5580    -6.7940 hc         1 WZC       0.060200
     40 HAI2         2.2290     6.5780    -5.3780 hc         1 WZC       0.060200
     41 HAG          3.2180     7.0080    -8.0480 ha         1 WZC       0.151000
     42 HAF          4.5420     6.2050   -10.3560 ho         1 WZC       0.423000
     43 HAH          4.2960     2.2560    -7.3420 ha         1 WZC       0.134000
     44 HAA1         5.0690     1.4660    -9.1200 h1         1 WZC       0.041033
     45 HAA2         6.7570     1.6900    -9.6000 h1         1 WZC       0.041033
     46 HAA3         6.2790     1.9210    -7.9120 h1         1 WZC       0.041033
     47 HAL1         3.6330     1.3680    -5.8710 hc         1 WZC       0.060200
     48 HAL2         4.0630     2.5130    -4.5910 hc         1 WZC       0.060200
     49 HAN1         3.1280     0.4700    -3.5880 hc         1 WZC       0.028200
     50 HAN2         1.6620     0.6350    -4.5780 hc         1 WZC       0.028200
     51 HAB1         2.5770     3.8380    -1.9730 hc         1 WZC       0.055367
     52 HAB2         3.6920     3.2480    -3.2130 hc         1 WZC       0.055367
     53 HAB3         3.5180     2.3670    -1.6890 hc         1 WZC       0.055367
     54 HAC3         2.8320    -1.2150    -1.1760 hn         1 WZC       0.495467
@<TRIPOS>BOND
     1     1     2 2
     2     2     3 2
     3     2     4 1
     4     2     5 1
     5     5     6 1
     6     6     7 1
     7     6    25 1
     8     7     8 1
     9     8     9 1
    10     9    10 1
    11     9    25 1
    12    10    11 1
    13    10    22 1
    14    11    12 1
    15    12    13 1
    16    13    14 ar
    17    13    21 ar
    18    14    15 ar
    19    15    16 1
    20    15    17 ar
    21    17    18 1
    22    17    20 ar
    23    18    19 1
    24    20    21 ar
    25    21    22 1
    26    22    23 1
    27    23    24 1
    28    24    25 1
    29    25    26 1
    30     4    27 1
    31     4    28 1
    32     6    29 1
    33     7    30 1
    34     7    31 1
    35     8    32 1
    36     8    33 1
    37     9    34 1
    38    10    35 1
    39    11    36 1
    40    11    37 1
    41    22    38 1
    42    12    39 1
    43    12    40 1
    44    14    41 1
    45    16    42 1
    46    20    43 1
    47    19    44 1
    48    19    45 1
    49    19    46 1
    50    23    47 1
    51    23    48 1
    52    24    49 1
    53    24    50 1
    54    26    51 1
    55    26    52 1
    56    26    53 1
    57    54     4 1
@<TRIPOS>SUBSTRUCTURE
     1 WZC         1 TEMP              0 ****  ****    0 ROOT
