@<TRIPOS>MOLECULE
WZC
   54    57     1     0     0
SMALL
bcc


@<TRIPOS>ATOM
      1 OAD          0.0000     0.0000     0.0000 o          1 WZC      -0.508800
      2 SAZ          1.4210     0.0000     0.0000 s6         1 WZC       1.267400
      3 OAE          2.1970     0.0000     1.1900 o          1 WZC      -0.508800
      4 NAC          1.8880    -1.3340    -0.8630 nz         1 WZC      -0.174500
      5 OAP          1.8510     1.2250    -0.7950 os         1 WZC      -0.419500
      6 CAV          1.0360     1.4920    -1.9380 c3         1 WZC       0.219100
      7 CAK         -0.0420     2.5500    -1.5930 c3         1 WZC      -0.038400
      8 CAM          0.1630     3.7240    -2.5900 c3         1 WZC      -0.017400
      9 CAX          0.8630     3.0490    -3.7740 c3         1 WZC      -0.032700
     10 CAW          1.6840     3.9570    -4.6670 c3         1 WZC      -0.055700
     11 CAJ          0.8110     4.9840    -5.3890 c3         1 WZC      -0.022400
     12 CAI          1.7280     5.9640    -6.1170 c3         1 WZC       0.041900
     13 CAR          2.7740     5.2390    -6.9220 ca         1 WZC      -0.098300
     14 CAG          3.4590     5.9640    -7.8910 ca         1 WZC      -0.110000
     15 CAQ          4.4390     5.3660    -8.6590 ca         1 WZC       0.107100
     16 OAF          5.1000     6.0840    -9.6060 oh         1 WZC      -0.480100
     17 CAS          4.7450     4.0220    -8.4600 ca         1 WZC       0.131100
     18 OAO          5.7120     3.4230    -9.2050 os         1 WZC      -0.283900
     19 CAA          5.9690     2.0410    -8.9440 c3         1 WZC       0.242700
     20 CAH          4.0600     3.3010    -7.4990 ca         1 WZC      -0.212000
     21 CAT          3.0700     3.9060    -6.7350 ca         1 WZC      -0.062300
     22 CAU          2.3390     3.0650    -5.7290 c3         1 WZC       0.017600
     23 CAL          3.2430     2.0170    -5.0960 c3         1 WZC      -0.030400
     24 CAN          2.4580     1.1700    -4.0750 c3         1 WZC      -0.005400
     25 CAY          1.8720     2.1150    -3.0480 c3         1 WZC      -0.106000
     26 CAB          2.9970     2.9530    -2.4360 c3         1 WZC      -0.021100
     27 HAC1         1.8530    -2.1420    -0.2740 hn         1 WZC       0.321800
     28 HAC2         1.2720    -1.4610    -1.6410 hn         1 WZC       0.321800
     29 HAV          0.5650     0.5820    -2.2910 h1         1 WZC      -0.003300
     30 HAK1         0.0950     2.9000    -0.5760 hc         1 WZC       0.042700
     31 HAK2        -1.0310     2.1260    -1.7170 hc         1 WZC       0.042700
     32 HAM1         0.7970     4.4870    -2.1560 hc         1 WZC       0.039700
     33 HAM2        -0.7920     4.1350    -2.8950 hc         1 WZC       0.039700
     34 HAX          0.1580     2.4690    -4.3580 hc         1 WZC       0.042700
     35 HAW          2.4460     4.4610    -4.0840 hc         1 WZC       0.056700
     36 HAJ1         0.2250     5.5260    -4.6570 hc         1 WZC       0.023700
     37 HAJ2         0.1920     4.4720    -6.1160 hc         1 WZC       0.023700
     38 HAU          1.5480     2.5420    -6.2520 hc         1 WZC       0.033700
     39 HAI1         1.1260     6.5580    -6.7940 hc         1 WZC       0.026700
     40 HAI2         2.2290     6.5780    -5.3780 hc         1 WZC       0.026700
     41 HAG          3.2180     7.0080    -8.0480 ha         1 WZC       0.121000
     42 HAF          4.5420     6.2050   -10.3560 ho         1 WZC       0.405000
     43 HAH          4.2960     2.2560    -7.3420 ha         1 WZC       0.125000
     44 HAA1         5.0690     1.4660    -9.1200 h1         1 WZC      -0.003967
     45 HAA2         6.7570     1.6900    -9.6000 h1         1 WZC      -0.003967
     46 HAA3         6.2790     1.9210    -7.9120 h1         1 WZC      -0.003967
     47 HAL1         3.6330     1.3680    -5.8710 hc         1 WZC       0.034700
     48 HAL2         4.0630     2.5130    -4.5910 hc         1 WZC       0.034700
     49 HAN1         3.1280     0.4700    -3.5880 hc         1 WZC      -0.001300
     50 HAN2         1.6620     0.6350    -4.5780 hc         1 WZC      -0.001300
     51 HAB1         2.5770     3.8380    -1.9730 hc         1 WZC       0.030033
     52 HAB2         3.6920     3.2480    -3.2130 hc         1 WZC       0.030033
     53 HAB3         3.5180     2.3670    -1.6890 hc         1 WZC       0.030033
     54 HAC3         2.8320    -1.2150    -1.1760 hn         1 WZC       0.321800
@<TRIPOS>BOND
     1     1     2 2   
     2     2     3 2   
     3     2     4 1   
     4     2     5 1   
     5     4    27 1   
     6     4    28 1   
     7     4    54 1   
     8     5     6 1   
     9     6     7 1   
    10     6    25 1   
    11     6    29 1   
    12     7     8 1   
    13     7    30 1   
    14     7    31 1   
    15     8     9 1   
    16     8    32 1   
    17     8    33 1   
    18     9    10 1   
    19     9    25 1   
    20     9    34 1   
    21    10    11 1   
    22    10    22 1   
    23    10    35 1   
    24    11    12 1   
    25    11    36 1   
    26    11    37 1   
    27    12    13 1   
    28    12    39 1   
    29    12    40 1   
    30    13    14 ar  
    31    13    21 ar  
    32    14    15 ar  
    33    14    41 1   
    34    15    16 1   
    35    15    17 ar  
    36    16    42 1   
    37    17    18 1   
    38    17    20 ar  
    39    18    19 1   
    40    19    44 1   
    41    19    45 1   
    42    19    46 1   
    43    20    21 ar  
    44    20    43 1   
    45    21    22 1   
    46    22    23 1   
    47    22    38 1   
    48    23    24 1   
    49    23    47 1   
    50    23    48 1   
    51    24    25 1   
    52    24    49 1   
    53    24    50 1   
    54    25    26 1   
    55    26    51 1   
    56    26    52 1   
    57    26    53 1   
@<TRIPOS>SUBSTRUCTURE
     1 WZC         1 TEMP              0 ****  ****    0 ROOT
