@<TRIPOS>MOLECULE
WZV
   52    54     1     0     0
SMALL
bcc


@<TRIPOS>ATOM
      1 F30          0.0000     0.0000     0.0000 f          1 WZV      -0.196967
      2 C28          1.3990     0.0000     0.0000 c3         1 WZV       0.575900
      3 F31          1.8650     0.0000     1.3190 f          1 WZV      -0.196967
      4 F29          1.8640    -1.1430    -0.6590 f          1 WZV      -0.196967
      5 C27          1.9090     1.2490    -0.7210 c3         1 WZV       0.139400
      6 O26          1.4340     2.4150    -0.0480 os         1 WZV      -0.269900
      7 C18          1.7980     3.6160    -0.5650 ca         1 WZV       0.065800
      8 C23          2.6010     3.6800    -1.7010 ca         1 WZV       0.288200
      9 N22          2.9600     4.8380    -2.2070 nb         1 WZV      -0.538000
     10 C19          1.3700     4.7990     0.0320 ca         1 WZV      -0.109000
     11 C20          1.7660     6.0000    -0.5270 ca         1 WZV      -0.093300
     12 C21          2.5750     5.9860    -1.6630 ca         1 WZV       0.254800
     13 C24          3.0060     7.2650    -2.2700 c          1 WZV       0.488600
     14 O25          2.6570     8.3200    -1.7770 o          1 WZV      -0.627100
     15 N13          3.7840     7.2600    -3.3710 ns         1 WZV      -0.026100
     16 C7           4.1000     8.4620    -4.0090 ca         1 WZV      -0.069400
     17 C12          5.3320     8.6180    -4.6310 ca         1 WZV      -0.125000
     18 C8           3.1800     9.5030    -4.0280 ca         1 WZV      -0.081000
     19 C9           3.4950    10.6910    -4.6600 ca         1 WZV      -0.059000
     20 C10          4.7240    10.8430    -5.2740 ca         1 WZV      -0.114000
     21 C11          5.6410     9.8070    -5.2620 ca         1 WZV      -0.113300
     22 C1           6.9770     9.9760    -5.9380 c3         1 WZV       0.171500
     23 C2           6.8330    10.9410    -7.1160 c3         1 WZV      -0.110400
     24 C3           8.0790    10.8710    -7.9640 c          1 WZV       0.611500
     25 O16          8.4800    11.8560    -8.5460 o          1 WZV      -0.561500
     26 C14          7.9850    10.5440    -4.9360 c3         1 WZV       0.000900
     27 N6           7.4470     8.6770    -6.4160 n2         1 WZV      -0.427900
     28 C5           8.2740     8.5810    -7.4120 c2         1 WZV       0.091800
     29 N15          8.6910     7.3380    -7.8230 nz         1 WZV       0.186400
     30 N4           8.7410     9.7000    -8.0680 n          1 WZV      -0.059300
     31 C17          9.9590     9.6190    -8.8770 c3         1 WZV       0.047300
     32 H271         1.5470     1.2480    -1.7430 h1         1 WZV       0.037200
     33 H272         2.9920     1.2480    -0.7220 h1         1 WZV       0.037200
     34 H23          2.9350     2.7640    -2.1720 h4         1 WZV      -0.005900
     35 H19          0.7410     4.7780     0.9140 ha         1 WZV       0.137000
     36 H20          1.4520     6.9400    -0.0880 ha         1 WZV       0.143000
     37 H13          4.1290     6.3940    -3.7350 hn         1 WZV       0.184500
     38 H12          6.0500     7.8070    -4.6220 ha         1 WZV       0.108000
     39 H8           2.2170     9.3840    -3.5470 ha         1 WZV       0.150000
     40 H9           2.7790    11.5030    -4.6730 ha         1 WZV       0.118000
     41 H10          4.9690    11.7750    -5.7690 ha         1 WZV       0.112000
     42 H21C         6.0080    10.5890    -7.7230 hc         1 WZV       0.080700
     43 H22C         6.7770    11.9430    -6.7080 hc         1 WZV       0.080700
     44 H141         8.0920     9.8590    -4.1030 hc         1 WZV       0.028033
     45 H142         7.6330    11.5020    -4.5730 hc         1 WZV       0.028033
     46 H143         8.9450    10.6720    -5.4220 hc         1 WZV       0.028033
     47 H151         8.0980     6.6380    -7.4220 hn         1 WZV       0.225467
     48 H152         8.6450     7.2830    -8.8210 hn         1 WZV       0.225467
     49 H171         9.7320     9.1470    -9.8260 h1         1 WZV       0.036367
     50 H172        10.3430    10.6170    -9.0530 h1         1 WZV       0.036367
     51 H173        10.7040     9.0330    -8.3520 h1         1 WZV       0.036367
     52 H153         9.6230     7.1750    -7.4970 hn         1 WZV       0.225467
@<TRIPOS>BOND
     1     1     2 1   
     2     2     3 1   
     3     2     4 1   
     4     2     5 1   
     5     5     6 1   
     6     5    32 1   
     7     5    33 1   
     8     6     7 1   
     9     7     8 ar  
    10     7    10 ar  
    11     8     9 ar  
    12     8    34 1   
    13     9    12 ar  
    14    10    11 ar  
    15    10    35 1   
    16    11    12 ar  
    17    11    36 1   
    18    12    13 1   
    19    13    14 2   
    20    13    15 1   
    21    15    16 1   
    22    15    37 1   
    23    16    17 ar  
    24    16    18 ar  
    25    17    21 ar  
    26    17    38 1   
    27    18    19 ar  
    28    18    39 1   
    29    19    20 ar  
    30    19    40 1   
    31    20    21 ar  
    32    20    41 1   
    33    21    22 1   
    34    22    23 1   
    35    22    26 1   
    36    22    27 1   
    37    23    24 1   
    38    23    42 1   
    39    23    43 1   
    40    24    25 2   
    41    24    30 1   
    42    26    44 1   
    43    26    45 1   
    44    26    46 1   
    45    27    28 2   
    46    28    29 1   
    47    28    30 1   
    48    29    47 1   
    49    29    48 1   
    50    29    52 1   
    51    30    31 1   
    52    31    49 1   
    53    31    50 1   
    54    31    51 1   
@<TRIPOS>SUBSTRUCTURE
     1 WZV         1 TEMP              0 ****  ****    0 ROOT
