@<TRIPOS>MOLECULE
molecule
   40    43     1     0     0
SMALL
bcc


@<TRIPOS>ATOM
      1 C1           0.0000     0.0000     0.0000 ca         1 C00      -0.117000
      2 C2           1.3820     0.0000     0.0000 ca         1 C00      -0.111000
      3 C6           1.3960    -0.0010     2.3970 ca         1 C00      -0.145600
      4 C8          -0.0140    -0.0010     2.3970 ca         1 C00      -0.156600
      5 C15         -0.4190    -0.0020     3.8180 c          1 C00       0.729100
      6 C26          0.6900    -0.0030     5.9830 ca         1 C00       0.022600
      7 C28          0.6930    -1.2020     6.6750 ca         1 C00      -0.071000
      8 C30          0.6980    -1.1990     8.0690 cp         1 C00      -0.056000
      9 C32          0.7030     0.0110     8.7620 ca         1 C00      -0.076000
     10 C34          0.7010     1.2040     8.0680 ca         1 C00      -0.200000
     11 C36          0.6960     1.2030     6.6810 ca         1 C00       0.149100
     12 C41          0.7050    -3.6770    10.8960 ca         1 C00      -0.124500
     13 C21          1.8010    -0.0010     3.8190 c          1 C00       0.727100
     14 C4           2.0850     0.0000     1.1950 ca         1 C00      -0.069000
     15 N19          0.6910    -0.0020     4.5800 n          1 C00      -0.393600
     16 O17         -1.5600    -0.0020     4.2310 o          1 C00      -0.565500
     17 C10         -0.7030    -0.0010     1.1950 ca         1 C00      -0.011300
     18 O39          0.6950     2.3820     6.0020 oh         1 C00      -0.496100
     19 C45          0.6980    -2.4810     8.8140 cp         1 C00      -0.031000
     20 C46          0.7040    -2.4810    10.2080 ca         1 C00      -0.120000
     21 C44          0.6930    -3.6920     8.1230 ca         1 C00      -0.120000
     22 C43          0.6940    -4.8820     8.8210 ca         1 C00      -0.124500
     23 C42          0.6990    -4.8750    10.2050 ca         1 C00      -0.126000
     24 H1          -0.5380     0.0000    -0.9400 ha         1 C00       0.142000
     25 H2           1.9200     0.0010    -0.9400 ha         1 C00       0.141000
     26 H13         -2.5740    -0.8870     1.6950 hc         1 C00       0.055367
     27 H13A        -2.5660    -0.0010     0.1630 hc         1 C00       0.055367
     28 H13B        -2.5740     0.8820     1.6960 hc         1 C00       0.055367
     29 H28          0.6890    -2.1400     6.1340 ha         1 C00       0.149000
     30 H32          0.7070     0.0140     9.8450 ha         1 C00       0.140000
     31 H34          0.7050     2.1430     8.6080 ha         1 C00       0.140000
     32 H41          0.7100    -3.6770    11.9790 ha         1 C00       0.131000
     33 H4           3.1680    -0.0000     1.1890 ha         1 C00       0.150000
     34 HO39         1.2180     3.0130     6.4680 ho         1 C00       0.426000
     35 H46          0.7090    -1.5430    10.7500 ha         1 C00       0.132000
     36 H44          0.6890    -3.6980     7.0400 ha         1 C00       0.132000
     37 H43          0.6890    -5.8240     8.2850 ha         1 C00       0.131000
     38 H42          0.7000    -5.8120    10.7490 ha         1 C00       0.130000
     39 C13         -2.2100    -0.0020     1.1860 c3         1 C00      -0.053800
     40 O23          2.9420    -0.0000     4.2310 o          1 C00      -0.569500
@<TRIPOS>BOND
     1     1     2 ar
     2     1    17 ar
     3     2    14 ar
     4     3     4 ar
     5     3    13 1
     6     3    14 ar
     7     4     5 1
     8     4    17 ar
     9    39    17 1
    10     5    15 1
    11     5    16 2
    12     6     7 ar
    13     6    11 ar
    14     6    15 1
    15     7     8 ar
    16     8     9 ar
    17     8    19 1
    18     9    10 ar
    19    10    11 ar
    20    11    18 1
    21    12    20 ar
    22    12    23 ar
    23    40    13 2
    24    13    15 1
    25    19    20 ar
    26    19    21 ar
    27    21    22 ar
    28    22    23 ar
    29     1    24 1
    30     2    25 1
    31    39    26 1
    32    39    27 1
    33    39    28 1
    34     7    29 1
    35     9    30 1
    36    10    31 1
    37    12    32 1
    38    14    33 1
    39    18    34 1
    40    20    35 1
    41    21    36 1
    42    22    37 1
    43    23    38 1
@<TRIPOS>SUBSTRUCTURE
     1 C00         1 TEMP              0 ****  ****    0 ROOT
