@<TRIPOS>MOLECULE
C01
   61    63     1     0     0
SMALL
bcc


@<TRIPOS>ATOM
      1 C1          0.0850   -0.1380    0.0110 ca        1 C01     -0.107300
      2 C2          1.4950   -0.0440    0.1230 ca        1 C01      0.208100
      3 C3          2.1650   -0.1830    1.3680 ca        1 C01     -0.127300
      4 C4          1.3350   -0.3460    2.4690 ca        1 C01      0.116100
      5 C5         -0.0770   -0.4290    2.3840 ca        1 C01     -0.258600
      6 C6         -0.7030   -0.3330    1.1520 ca        1 C01     -0.019000
      7 O8          1.7520   -0.4590    3.8140 os        1 C01     -0.169200
      8 N9          0.6520   -0.6850    4.6070 n         1 C01     -0.237300
      9 C10        -0.5590   -0.5950    3.7640 c         1 C01      0.665100
     10 C11         0.6590    0.2200    5.7470 c3        1 C01      0.015300
     11 O15        -1.7000   -0.7130    4.2180 o         1 C01     -0.584500
     12 C16         3.6440   -0.1610    1.4910 c3        1 C01     -0.030100
     13 C17         4.1860   -1.4120    2.1590 c3        1 C01     -0.081400
     14 C20         5.6870   -1.3560    2.2800 c3        1 C01     -0.090100
     15 C26        -0.5760   -0.0180   -1.3180 c3        1 C01     -0.061100
     16 C27        -0.8930   -1.3790   -1.9080 c3        1 C01     -0.067400
     17 C30        -1.5770   -1.2410   -3.2440 c3        1 C01     -0.091100
     18 O36         2.2160    0.0700   -1.0440 os        1 C01     -0.337900
     19 C37         2.8890    1.3520   -1.2280 c3        1 C01      0.047400
     20 C38         4.1430    1.0490   -1.9870 ca        1 C01     -0.054300
     21 C39         1.9560    2.3300   -2.0180 c         1 C01      0.912600
     22 C40         5.3990    1.2820   -1.4190 ca        1 C01     -0.106000
     23 C41         6.5600    1.0130   -2.1420 ca        1 C01     -0.143500
     24 C42         6.4840    0.5000   -3.4410 ca        1 C01     -0.093300
     25 C43         5.2240    0.2730   -4.0100 ca        1 C01     -0.143500
     26 C44         4.0640    0.5490   -3.2930 ca        1 C01     -0.106000
     27 C49         7.7370    0.2100   -4.2060 c3        1 C01     -0.016400
     28 C50         7.8310   -1.2610   -4.5620 c3        1 C01     -0.085100
     29 C54         7.8220    1.0640   -5.4570 c3        1 C01     -0.085100
     30 O60         1.4060    1.9210   -3.0750 o         1 C01     -0.812300
     31 O61         1.8280    3.4780   -1.5190 o         1 C01     -0.812300
     32 H6         -1.7970   -0.3990    1.0680 ha        1 C01      0.146000
     33 H111        0.7510    1.2990    5.4560 h1        1 C01      0.055033
     34 H112       -0.3010    0.0580    6.3030 h1        1 C01      0.055033
     35 H113        1.5300   -0.0520    6.3970 h1        1 C01      0.055033
     36 H161        4.1110   -0.0660    0.4710 hc        1 C01      0.061200
     37 H162        3.9480    0.7420    2.0880 hc        1 C01      0.061200
     38 H171        3.8890   -2.3120    1.5580 hc        1 C01      0.047200
     39 H172        3.7260   -1.5240    3.1770 hc        1 C01      0.047200
     40 H201        6.0000   -0.4780    2.8940 hc        1 C01      0.028033
     41 H202        6.0710   -2.2840    2.7680 hc        1 C01      0.028033
     42 H203        6.1610   -1.2650    1.2720 hc        1 C01      0.028033
     43 H261       -1.5250    0.5720   -1.2090 hc        1 C01      0.089200
     44 H262        0.0970    0.5520   -2.0270 hc        1 C01      0.089200
     45 H271       -1.5470   -1.9570   -1.2030 hc        1 C01      0.030700
     46 H272        0.0610   -1.9570   -2.0310 hc        1 C01      0.030700
     47 H301       -1.7690   -2.2460   -3.6900 hc        1 C01      0.030033
     48 H302       -0.9370   -0.6530   -3.9470 hc        1 C01      0.030033
     49 H303       -2.5530   -0.7100   -3.1340 hc        1 C01      0.030033
     50 H37         3.1230    1.8030   -0.2260 h1        1 C01      0.051700
     51 H40         5.4720    1.6910   -0.4000 ha        1 C01      0.153500
     52 H41         7.5410    1.2070   -1.6850 ha        1 C01      0.115500
     53 H43         5.1520   -0.1180   -5.0350 ha        1 C01      0.115500
     54 H44         3.0600    0.4130   -3.7380 ha        1 C01      0.153500
     55 H49         8.6230    0.4650   -3.5540 hc        1 C01      0.038700
     56 H501        7.8040   -1.8860   -3.6370 hc        1 C01      0.031200
     57 H502        8.7840   -1.4660   -5.1060 hc        1 C01      0.031200
     58 H503        6.9770   -1.5620   -5.2150 hc        1 C01      0.031200
     59 H541        7.7840    2.1470   -5.1890 hc        1 C01      0.031200
     60 H542        8.7770    0.8600   -5.9980 hc        1 C01      0.031200
     61 H543        6.9690    0.8410   -6.1420 hc        1 C01      0.031200
@<TRIPOS>BOND
     1    1    2 ar  
     2    1    6 ar  
     3    1   15 1   
     4    2    3 ar  
     5    2   18 1   
     6    3    4 ar  
     7    3   12 1   
     8    4    5 ar  
     9    4    7 1   
    10    5    6 ar  
    11    5    9 1   
    12    6   32 1   
    13    7    8 1   
    14    8    9 1   
    15    8   10 1   
    16    9   11 2   
    17   10   33 1   
    18   10   34 1   
    19   10   35 1   
    20   12   13 1   
    21   12   36 1   
    22   12   37 1   
    23   13   14 1   
    24   13   38 1   
    25   13   39 1   
    26   14   40 1   
    27   14   41 1   
    28   14   42 1   
    29   15   16 1   
    30   15   43 1   
    31   15   44 1   
    32   16   17 1   
    33   16   45 1   
    34   16   46 1   
    35   17   47 1   
    36   17   48 1   
    37   17   49 1   
    38   18   19 1   
    39   19   20 1   
    40   19   21 1   
    41   19   50 1   
    42   20   22 ar  
    43   20   26 ar  
    44   21   30 1   
    45   21   31 1   
    46   22   23 ar  
    47   22   51 1   
    48   23   24 ar  
    49   23   52 1   
    50   24   25 ar  
    51   24   27 1   
    52   25   26 ar  
    53   25   53 1   
    54   26   54 1   
    55   27   28 1   
    56   27   29 1   
    57   27   55 1   
    58   28   56 1   
    59   28   57 1   
    60   28   58 1   
    61   29   59 1   
    62   29   60 1   
    63   29   61 1   
@<TRIPOS>SUBSTRUCTURE
     1 C01         1 TEMP              0 ****  ****    0 ROOT
