@<TRIPOS>MOLECULE
C02
   52    55     1     0     0
SMALL
bcc


@<TRIPOS>ATOM
      1 N1           0.0000     0.0000     0.0000 n2         1 C02      -0.457100
      2 C2           1.3020     0.0000     0.0000 ce         1 C02       0.234800
      3 N3           1.9900     0.0000     1.1930 nz         1 C02       0.122400
      4 C4           2.0430     0.0010    -1.2820 ca         1 C02      -0.206900
      5 C5           1.3490     0.0020    -2.4910 ca         1 C02      -0.056000
      6 C6           2.0450     0.0030    -3.6830 ca         1 C02      -0.074500
      7 C7           3.4290     0.0040    -3.6790 ca         1 C02      -0.023300
      8 C8           4.1220    -0.0020    -2.4830 ca         1 C02      -0.074500
      9 C9           3.4360     0.0020    -1.2850 ca         1 C02      -0.056000
     10 C10          4.1830     0.0050    -4.9830 c3         1 C02       0.031600
     11 C11          4.4330     1.4260    -5.4180 cc         1 C02       0.195800
     12 N12          3.6330     2.1280    -6.1660 nd         1 C02      -0.511100
     13 C13          4.1600     3.3640    -6.3640 ca         1 C02       0.090400
     14 C14          5.3790     3.4050    -5.6690 ca         1 C02      -0.281200
     15 N15          5.5270     2.1610    -5.0850 na         1 C02       0.310700
     16 C16          6.6500     1.7190    -4.2550 c3         1 C02      -0.005400
     17 C17          6.1560     4.5550    -5.6950 ca         1 C02      -0.055000
     18 C18          5.7240     5.6600    -6.3950 ca         1 C02      -0.175000
     19 C19          4.5140     5.6300    -7.0820 ca         1 C02       0.076600
     20 C20          3.7320     4.4900    -7.0710 ca         1 C02      -0.095000
     21 N21          4.0860     6.7590    -7.7900 nu         1 C02      -0.387500
     22 S22          5.1950     7.8540    -8.3490 sy         1 C02       1.046200
     23 C23          6.2780     6.9960    -9.4430 ca         1 C02      -0.163500
     24 C24          6.0520     7.0320   -10.8060 ca         1 C02       0.002000
     25 C25          6.9010     6.3580   -11.6640 ca         1 C02      -0.129500
     26 C26          7.9760     5.6510   -11.1590 ca         1 C02      -0.039000
     27 C27          8.2010     5.6160    -9.7960 ca         1 C02      -0.129500
     28 C28          7.3540     6.2930    -8.9390 ca         1 C02       0.002000
     29 O29          4.4650     8.7620    -9.1620 o          1 C02      -0.582300
     30 O30          5.9860     8.2110    -7.2240 o          1 C02      -0.582300
     31 HN1         -0.5010    -0.0000     0.8660 hn         1 C02       0.336400
     32 HN31         2.5650     0.8170     1.2470 hn         1 C02       0.226133
     33 HN32         1.3390     0.0000     1.9540 hn         1 C02       0.226133
     34 H5           0.2660     0.0010    -2.4950 ha         1 C02       0.105000
     35 H6           1.5070     0.0060    -4.6230 ha         1 C02       0.131500
     36 H8           5.2050    -0.0010    -2.4860 ha         1 C02       0.131500
     37 H9           3.9810    -0.0030    -0.3480 ha         1 C02       0.105000
     38 H101         3.5980    -0.5060    -5.7390 hc         1 C02       0.041700
     39 H102         5.1300    -0.5050    -4.8530 hc         1 C02       0.041700
     40 H161         6.4470     1.9540    -3.2170 h1         1 C02       0.021033
     41 H162         7.5540     2.2260    -4.5700 h1         1 C02       0.021033
     42 H163         6.7810     0.6490    -4.3630 h1         1 C02       0.021033
     43 H17          7.0990     4.5840    -5.1620 ha         1 C02       0.103000
     44 H18          6.3300     6.5580    -6.4100 ha         1 C02       0.187000
     45 H20          2.7910     4.4700    -7.6070 ha         1 C02       0.120000
     46 H21N         3.1080     6.9240    -7.9240 hn         1 C02       0.349800
     47 H24          5.2100     7.5860   -11.2010 ha         1 C02       0.125000
     48 H25          6.7250     6.3850   -12.7320 ha         1 C02       0.110500
     49 H26          8.6410     5.1220   -11.8320 ha         1 C02       0.105000
     50 H27          9.0450     5.0630    -9.4000 ha         1 C02       0.110500
     51 H28          7.5310     6.2660    -7.8700 ha         1 C02       0.125000
     52 H33          2.5660    -0.8160     1.2460 hn         1 C02       0.226133
@<TRIPOS>BOND
     1     1     2 2   
     2     1    31 1   
     3     2     3 1   
     4     2     4 1   
     5     3    32 1   
     6     3    33 1   
     7     3    52 1   
     8     4     5 ar  
     9     4     9 ar  
    10     5     6 ar  
    11     5    34 1   
    12     6     7 ar  
    13     6    35 1   
    14     7     8 ar  
    15     7    10 1   
    16     8     9 ar  
    17     8    36 1   
    18     9    37 1   
    19    10    11 1   
    20    10    38 1   
    21    10    39 1   
    22    11    12 2   
    23    11    15 1   
    24    12    13 1   
    25    13    14 ar  
    26    13    20 ar  
    27    14    15 1   
    28    14    17 ar  
    29    15    16 1   
    30    16    40 1   
    31    16    41 1   
    32    16    42 1   
    33    17    18 ar  
    34    17    43 1   
    35    18    19 ar  
    36    18    44 1   
    37    19    20 ar  
    38    19    21 1   
    39    20    45 1   
    40    21    22 1   
    41    21    46 1   
    42    22    23 1   
    43    22    29 2   
    44    22    30 2   
    45    23    24 ar  
    46    23    28 ar  
    47    24    25 ar  
    48    24    47 1   
    49    25    26 ar  
    50    25    48 1   
    51    26    27 ar  
    52    26    49 1   
    53    27    28 ar  
    54    27    50 1   
    55    28    51 1   
@<TRIPOS>SUBSTRUCTURE
     1 C02         1 TEMP              0 ****  ****    0 ROOT
