@<TRIPOS>MOLECULE
molecule
   52    55     1     0     0
SMALL
bcc


@<TRIPOS>ATOM
      1 N1           0.0000     0.0000     0.0000 n2         1 C02      -0.723100
      2 C2           1.3020     0.0000     0.0000 ce         1 C02       0.520800
      3 N3           1.9900     0.0000     1.1930 nz         1 C02      -0.741600
      4 C4           2.0430     0.0010    -1.2820 ca         1 C02      -0.239900
      5 C5           1.3490     0.0020    -2.4910 ca         1 C02      -0.097500
      6 C6           2.0450     0.0030    -3.6830 ca         1 C02      -0.093500
      7 C7           3.4290     0.0040    -3.6790 ca         1 C02      -0.021300
      8 C8           4.1220    -0.0020    -2.4830 ca         1 C02      -0.093500
      9 C9           3.4360     0.0020    -1.2850 ca         1 C02      -0.097500
     10 C10          4.1830     0.0050    -4.9830 c3         1 C02      -0.042400
     11 C11          4.4330     1.4260    -5.4180 cc         1 C02       0.402800
     12 N12          3.6330     2.1280    -6.1660 nd         1 C02      -0.593100
     13 C13          4.1600     3.3640    -6.3640 ca         1 C02       0.113400
     14 C14          5.3790     3.4050    -5.6690 ca         1 C02      -0.105200
     15 N15          5.5270     2.1610    -5.0850 na         1 C02      -0.153300
     16 C16          6.6500     1.7190    -4.2550 c3         1 C02       0.037600
     17 C17          6.1560     4.5550    -5.6950 ca         1 C02      -0.099000
     18 C18          5.7240     5.6600    -6.3950 ca         1 C02      -0.168000
     19 C19          4.5140     5.6300    -7.0820 ca         1 C02       0.153600
     20 C20          3.7320     4.4900    -7.0710 ca         1 C02      -0.108000
     21 N21          4.0860     6.7590    -7.7900 nu         1 C02      -0.762500
     22 S22          5.1950     7.8540    -8.3490 sy         1 C02       1.427200
     23 C23          6.2780     6.9960    -9.4430 ca         1 C02      -0.316500
     24 C24          6.0520     7.0320   -10.8060 ca         1 C02      -0.026000
     25 C25          6.9010     6.3580   -11.6640 ca         1 C02      -0.149000
     26 C26          7.9760     5.6510   -11.1590 ca         1 C02      -0.067000
     27 C27          8.2010     5.6160    -9.7960 ca         1 C02      -0.149000
     28 C28          7.3540     6.2930    -8.9390 ca         1 C02      -0.026000
     29 O29          4.4650     8.7620    -9.1620 o          1 C02      -0.628300
     30 O30          5.9860     8.2110    -7.2240 o          1 C02      -0.628300
     31 HN1         -0.5020     0.0000    -0.8660 hn         1 C02       0.484400
     32 HN31         2.5650    -0.8170     1.2470 hn         1 C02       0.473133
     33 HN32         1.3390     0.0000     1.9540 hn         1 C02       0.473133
     34 H5           0.2660     0.0010    -2.4950 ha         1 C02       0.125000
     35 H6           1.5070     0.0060    -4.6230 ha         1 C02       0.165000
     36 H8           5.2050    -0.0010    -2.4860 ha         1 C02       0.165000
     37 H9           3.9810    -0.0030    -0.3480 ha         1 C02       0.125000
     38 H101         5.1300    -0.5050    -4.8530 hc         1 C02       0.085200
     39 H102         3.5980    -0.5060    -5.7390 hc         1 C02       0.085200
     40 H161         7.5540     2.2270    -4.5700 h1         1 C02       0.052033
     41 H162         6.7810     0.6490    -4.3640 h1         1 C02       0.052033
     42 H163         6.4470     1.9540    -3.2170 h1         1 C02       0.052033
     43 H17          7.0990     4.5840    -5.1620 ha         1 C02       0.135000
     44 H18          6.3300     6.5580    -6.4100 ha         1 C02       0.195000
     45 H20          2.7910     4.4700    -7.6070 ha         1 C02       0.151000
     46 H21N         3.1080     6.9240    -7.9240 hn         1 C02       0.468800
     47 H24          5.2100     7.5860   -11.2010 ha         1 C02       0.150000
     48 H25          6.7250     6.3850   -12.7320 ha         1 C02       0.139000
     49 H26          8.6410     5.1220   -11.8320 ha         1 C02       0.138000
     50 H27          9.0450     5.0630    -9.4000 ha         1 C02       0.139000
     51 H28          7.5310     6.2660    -7.8700 ha         1 C02       0.150000
     52 H33          2.5630     0.8180     1.2480 hn         1 C02       0.473133
@<TRIPOS>BOND
     1     1     2 2
     2     1    31 1
     3     2     3 1
     4     2     4 1
     5     3    32 1
     6     3    33 1
     7     4     5 ar
     8     4     9 ar
     9     5     6 ar
    10     5    34 1
    11     6     7 ar
    12     6    35 1
    13     7     8 ar
    14     7    10 1
    15     8     9 ar
    16     8    36 1
    17     9    37 1
    18    10    11 1
    19    10    38 1
    20    10    39 1
    21    11    12 2
    22    11    15 1
    23    12    13 1
    24    13    14 ar
    25    13    20 ar
    26    14    15 1
    27    14    17 ar
    28    15    16 1
    29    16    40 1
    30    16    41 1
    31    16    42 1
    32    17    18 ar
    33    17    43 1
    34    18    19 ar
    35    18    44 1
    36    19    20 ar
    37    19    21 1
    38    20    45 1
    39    21    22 1
    40    21    46 1
    41    22    23 1
    42    22    29 2
    43    22    30 2
    44    23    24 ar
    45    23    28 ar
    46    24    25 ar
    47    24    47 1
    48    25    26 ar
    49    25    48 1
    50    26    27 ar
    51    26    49 1
    52    27    28 ar
    53    27    50 1
    54    28    51 1
    55    52     3 1
@<TRIPOS>SUBSTRUCTURE
     1 C02         1 TEMP              0 ****  ****    0 ROOT
