@<TRIPOS>MOLECULE
molecule
   61    65     1     0     0
SMALL
bcc


@<TRIPOS>ATOM
      1 C1           0.0000     0.0000     0.0000 ca         1 C03      -0.194000
      2 C2           1.4010     0.0000     0.0000 ca         1 C03      -0.043000
      3 C3           2.0870     0.0000     1.2310 ca         1 C03      -0.040800
      4 C4           1.3460    -0.0000     2.4140 ca         1 C03      -0.015200
      5 C5          -0.0540    -0.0010     2.4290 ca         1 C03      -0.112000
      6 C6          -0.7130    -0.0010     1.1970 ca         1 C03       0.115100
      7 C10          3.4610    -0.0010     1.5980 cc         1 C03      -0.178800
      8 C11          3.5260    -0.0000     2.9730 cd         1 C03      -0.021300
      9 N12          2.2450    -0.0010     3.4560 na         1 C03      -0.058400
     10 C13          4.5700    -0.0000     0.6670 cc         1 C03       0.456200
     11 C14          4.7000     0.0000     3.8730 c3         1 C03      -0.036900
     12 C18          1.8870     0.0030     4.8590 c3         1 C03       0.096600
     13 O19         -2.0760    -0.0020     1.1670 os         1 C03      -0.386900
     14 C20         -2.7360     1.0820     0.5250 c3         1 C03       0.825700
     15 F21         -2.0070     2.2160     0.6140 f          1 C03      -0.212633
     16 F22         -3.9180     1.2980     1.1430 f          1 C03      -0.212633
     17 F23         -2.9890     0.8000    -0.7710 f          1 C03      -0.212633
     18 C24          1.7540     1.4060     5.3880 ca         1 C03      -0.092300
     19 C27          1.9820     2.4590     4.5090 ca         1 C03      -0.162000
     20 C28          1.8690     3.7720     4.9640 ca         1 C03       0.189100
     21 C29          1.5290     4.0240     6.2930 ca         1 C03      -0.175000
     22 C30          1.3030     2.9610     7.1680 ca         1 C03      -0.102000
     23 C31          1.4160     1.6480     6.7140 ca         1 C03      -0.026600
     24 Cl1          1.1310     0.3600     7.8260 cl         1 C03      -0.149400
     25 O36          2.0890     4.8090     4.1100 os         1 C03      -0.324900
     26 C37          3.0160     4.5900     3.0470 c3         1 C03       0.034100
     27 C38          3.6620     5.9210     2.7060 c3         1 C03      -0.065100
     28 C42          2.2620     4.0240     1.8620 c          1 C03       0.861600
     29 O44          1.0520     3.8390     1.8290 o          1 C03      -0.822800
     30 O45          3.0790     3.7590     0.8110 o          1 C03      -0.822800
     31 N46          5.1220     1.1260     0.2050 nd         1 C03      -0.284200
     32 O47          6.1380     0.7110    -0.6480 os         1 C03      -0.050600
     33 C48          6.1740    -0.6490    -0.6800 ca         1 C03       0.089100
     34 C49          5.1870    -1.1540     0.1490 ca         1 C03      -0.242900
     35 C50          7.0550    -1.4330    -1.4190 ca         1 C03      -0.254000
     36 C51          6.9000    -2.8180    -1.2890 ca         1 C03       0.190100
     37 C52          5.9150    -3.3650    -0.4620 ca         1 C03      -0.216000
     38 C53          5.0440    -2.5440     0.2690 ca         1 C03      -0.016000
     39 O57          7.7290    -3.6490    -1.9850 os         1 C03      -0.335900
     40 C58          8.7140    -3.0350    -2.8130 c3         1 C03       0.131700
     41 H1          -0.3620    -0.3600    -0.9560 ha         1 C03       0.134000
     42 H2           1.7860    -0.0800    -1.0090 ha         1 C03       0.138000
     43 H5          -0.6910    -0.4330     3.1910 ha         1 C03       0.141000
     44 H141         4.5760     0.7690     4.6270 hc         1 C03       0.052367
     45 H142         5.5960     0.1990     3.2980 hc         1 C03       0.052367
     46 H143         4.7870    -0.9660     4.3550 hc         1 C03       0.052367
     47 H181         0.9430    -0.5130     4.9850 h1         1 C03       0.064700
     48 H182         2.6530    -0.5170     5.4220 h1         1 C03       0.064700
     49 H27          2.2450     2.2600     3.4770 ha         1 C03       0.198000
     50 H29          1.4420     5.0450     6.6460 ha         1 C03       0.139000
     51 H30          1.0400     3.1570     8.2010 ha         1 C03       0.130000
     52 H37          3.7760     3.8860     3.3650 h1         1 C03       0.036700
     53 H381         4.4600     5.7620     1.9900 hc         1 C03       0.035033
     54 H382         4.0690     6.3660     3.6060 hc         1 C03       0.035033
     55 H383         2.9200     6.5840     2.2780 hc         1 C03       0.035033
     56 H50          7.6850    -0.7240    -1.9410 ha         1 C03       0.167000
     57 H52          5.7880    -4.4350    -0.3490 ha         1 C03       0.141000
     58 H53          4.3810    -3.1940     0.8260 ha         1 C03       0.146000
     59 H581         8.2260    -2.4170    -3.5570 h1         1 C03       0.039700
     60 H582         9.3650    -2.4200    -2.2030 h1         1 C03       0.039700
     61 H583         9.2990    -3.8010    -3.3070 h1         1 C03       0.039700
@<TRIPOS>BOND
     1     1     2 ar
     2     1     6 ar
     3     1    41 1
     4     2     3 ar
     5     2    42 1
     6     3     7 1
     7     3     4 ar
     8     4     9 1
     9     4     5 ar
    10     5     6 ar
    11     5    43 1
    12     6    13 1
    13     7     8 2
    14     7    10 1
    15     8    11 1
    16     8     9 1
    17     9    12 1
    18    10    31 2
    19    10    34 1
    20    11    44 1
    21    11    45 1
    22    11    46 1
    23    12    18 1
    24    12    47 1
    25    12    48 1
    26    13    14 1
    27    14    16 1
    28    14    15 1
    29    14    17 1
    30    18    23 ar
    31    18    19 ar
    32    19    20 ar
    33    19    49 1
    34    20    21 ar
    35    20    25 1
    36    21    22 ar
    37    21    50 1
    38    22    23 ar
    39    22    51 1
    40    23    24 1
    41    25    26 1
    42    26    28 1
    43    26    27 1
    44    26    52 1
    45    27    53 1
    46    27    54 1
    47    27    55 1
    48    28    29 1
    49    28    30 1
    50    31    32 1
    51    32    33 1
    52    33    34 ar
    53    33    35 ar
    54    34    38 ar
    55    35    36 ar
    56    35    56 1
    57    36    37 ar
    58    36    39 1
    59    37    38 ar
    60    37    57 1
    61    38    58 1
    62    39    40 1
    63    40    59 1
    64    40    60 1
    65    40    61 1
@<TRIPOS>SUBSTRUCTURE
     1 C03         1 TEMP              0 ****  ****    0 ROOT
