@<TRIPOS>MOLECULE
C03
   61    65     1     0     0
SMALL
bcc


@<TRIPOS>ATOM
      1 C1          1.4920    0.3230   -0.6600 ca        1 C03     -0.153000
      2 C2          2.7560   -0.0860   -0.2800 ca        1 C03     -0.100000
      3 C3          3.1070   -0.0610    1.0720 ca        1 C03     -0.081800
      4 C4          2.1600    0.4220    2.0500 ca        1 C03     -0.026200
      5 C5          0.8780    0.8580    1.6710 ca        1 C03     -0.156000
      6 C6          0.5700    0.7720    0.3170 ca        1 C03      0.126100
      7 C10         4.3060   -0.4180    1.7990 cc        1 C03     -0.227800
      8 C11         4.0630   -0.1540    3.1620 cd        1 C03      0.023700
      9 N12         2.7620    0.3430    3.3180 na        1 C03     -0.051400
     10 C13         5.5060   -0.9440    1.2210 cc        1 C03      0.501200
     11 C14         4.9870   -0.3740    4.2910 c3        1 C03     -0.054900
     12 C18         2.1090    0.6230    4.5710 c3        1 C03      0.082600
     13 O19        -0.6990    1.0240   -0.1930 os        1 C03     -0.402900
     14 C20        -1.4770    2.0780    0.3330 c3        1 C03      0.836700
     15 F21        -2.0500    1.7070    1.4960 f         1 C03     -0.201967
     16 F22        -2.4600    2.2290   -0.6010 f         1 C03     -0.201967
     17 F23        -0.7830    3.2310    0.4130 f         1 C03     -0.201967
     18 C24         2.3450    1.9960    5.1360 ca        1 C03     -0.076300
     19 C27         1.7520    3.0740    4.4760 ca        1 C03     -0.176000
     20 C28         1.8280    4.3670    5.0160 ca        1 C03      0.178100
     21 C29         2.5470    4.5870    6.2110 ca        1 C03     -0.168000
     22 C30         3.1520    3.5160    6.8520 ca        1 C03     -0.105000
     23 C31         3.0500    2.2240    6.3250 ca        1 C03     -0.026600
     24 CL1         3.7840    0.9500    7.2020 cl        1 C03     -0.144400
     25 O36         1.2560    5.4790    4.4680 os        1 C03     -0.322900
     26 C37         0.4380    5.2950    3.2860 c3        1 C03      0.010100
     27 C38         0.0020    6.6960    2.9100 c3        1 C03     -0.081100
     28 C42        -0.8000    4.3860    3.5360 c         1 C03      0.905600
     29 O44        -0.8220    3.2880    2.9000 o         1 C03     -0.828300
     30 O45        -1.7050    4.7850    4.3080 o         1 C03     -0.828300
     31 N46         6.7670   -0.5800    1.5240 nd        1 C03     -0.424200
     32 O47         7.6490   -1.2740    0.8030 os        1 C03     -0.025600
     33 C48         6.9600   -2.1570   -0.0460 ca        1 C03      0.079100
     34 C49         5.5610   -1.9900    0.1810 ca        1 C03     -0.246900
     35 C50         7.4930   -3.0610   -0.9540 ca        1 C03     -0.212000
     36 C51         6.5520   -3.8300   -1.6520 ca        1 C03      0.151100
     37 C52         5.1580   -3.6960   -1.4430 ca        1 C03     -0.189000
     38 C53         4.6590   -2.7770   -0.5270 ca        1 C03     -0.024000
     39 O57         6.8920   -4.7820   -2.5940 os        1 C03     -0.326900
     40 C58         8.2820   -4.9400   -2.8520 c3        1 C03      0.112700
     41 H1          1.1800    0.3060   -1.7130 ha        1 C03      0.141000
     42 H2          3.4870   -0.4220   -1.0300 ha        1 C03      0.134000
     43 H5          0.1590    1.3000    2.3890 ha        1 C03      0.213000
     44 H141        5.8550   -0.9960    3.9630 hc        1 C03      0.062367
     45 H142        4.4770   -0.8990    5.1390 hc        1 C03      0.062367
     46 H143        5.3710    0.6080    4.6690 hc        1 C03      0.062367
     47 H181        2.4350   -0.1620    5.3140 h1        1 C03      0.078200
     48 H182        0.9950    0.5120    4.4040 h1        1 C03      0.078200
     49 H27         1.1740    2.8920    3.5490 ha        1 C03      0.204000
     50 H29         2.6040    5.6020    6.6260 ha        1 C03      0.143000
     51 H30         3.7070    3.6850    7.7870 ha        1 C03      0.131000
     52 H37         1.0850    4.8450    2.4850 h1        1 C03      0.037700
     53 H381       -0.7190    7.0790    3.6730 hc        1 C03      0.037700
     54 H382       -0.5070    6.6540    1.9180 hc        1 C03      0.037700
     55 H383        0.8760    7.3860    2.8510 hc        1 C03      0.037700
     56 H50         8.5740   -3.1550   -1.1010 ha        1 C03      0.154000
     57 H52         4.4760   -4.3350   -2.0220 ha        1 C03      0.151000
     58 H53         3.5750   -2.6710   -0.3640 ha        1 C03      0.161000
     59 H581        8.8180   -5.2750   -1.9300 h1        1 C03      0.044033
     60 H582        8.7230   -3.9890   -3.2370 h1        1 C03      0.044033
     61 H583        8.3120   -5.7370   -3.6370 h1        1 C03      0.044033
@<TRIPOS>BOND
     1    1    2 ar  
     2    1    6 ar  
     3    1   41 1   
     4    2    3 ar  
     5    2   42 1   
     6    3    4 ar  
     7    3    7 1   
     8    4    5 ar  
     9    4    9 1   
    10    5    6 ar  
    11    5   43 1   
    12    6   13 1   
    13    7    8 2   
    14    7   10 1   
    15    8    9 1   
    16    8   11 1   
    17    9   12 1   
    18   10   31 2   
    19   10   34 1   
    20   11   44 1   
    21   11   45 1   
    22   11   46 1   
    23   12   18 1   
    24   12   47 1   
    25   12   48 1   
    26   13   14 1   
    27   14   15 1   
    28   14   16 1   
    29   14   17 1   
    30   18   19 ar  
    31   18   23 ar  
    32   19   20 ar  
    33   19   49 1   
    34   20   21 ar  
    35   20   25 1   
    36   21   22 ar  
    37   21   50 1   
    38   22   23 ar  
    39   22   51 1   
    40   23   24 1   
    41   25   26 1   
    42   26   27 1   
    43   26   28 1   
    44   26   52 1   
    45   27   53 1   
    46   27   54 1   
    47   27   55 1   
    48   28   29 1   
    49   28   30 1   
    50   31   32 1   
    51   32   33 1   
    52   33   34 ar  
    53   33   35 ar  
    54   34   38 ar  
    55   35   36 ar  
    56   35   56 1   
    57   36   37 ar  
    58   36   39 1   
    59   37   38 ar  
    60   37   57 1   
    61   38   58 1   
    62   39   40 1   
    63   40   59 1   
    64   40   60 1   
    65   40   61 1   
@<TRIPOS>SUBSTRUCTURE
     1 C03         1 TEMP              0 ****  ****    0 ROOT
