@<TRIPOS>MOLECULE
C04
   43    45     1     0     0
SMALL
bcc


@<TRIPOS>ATOM
      1 C1           0.0000     0.0000     0.0000 c2         1 C04      -0.307000
      2 N1           4.1870     0.1810     2.3300 nj         1 C04      -0.013000
      3 O1           6.4430     0.6910     2.1310 o          1 C04      -0.574500
      4 S1           2.2960     6.6740     4.9270 ss         1 C04      -0.437300
      5 C2           1.3350     0.0000     0.0000 ce         1 C04       0.002000
      6 N2           4.8080     2.2840     4.4620 ns         1 C04      -0.206900
      7 O2           6.6510     2.3410     5.6990 o          1 C04      -0.590100
      8 S2           2.2010     1.1190     3.8240 ss         1 C04      -0.444200
      9 C3           2.0660     0.1190     1.2600 ce         1 C04      -0.269200
     10 N3           6.2870     4.9710     6.3950 n2         1 C04      -0.344200
     11 O3           7.5410     4.3780     6.6780 os         1 C04      -0.079300
     12 C4           3.4070     0.0000     1.1820 cf         1 C04       0.001400
     13 N4           3.1570     4.3290     4.6750 nc         1 C04      -0.560000
     14 O4          10.6840     5.0640     8.4110 o          1 C04      -0.881800
     15 C5           3.7360     0.1350     3.7470 cy         1 C04       0.079800
     16 N5           0.9780     4.5120     3.7350 nv         1 C04      -0.539500
     17 O5           9.8950     3.3920     7.2000 o          1 C04      -0.881800
     18 C6           5.0010     0.8650     4.1550 cy         1 C04      -0.043300
     19 O6           4.3360     0.6700    -0.9710 o          1 C04      -0.861300
     20 C7           5.3900     0.5840     2.7230 c          1 C04       0.614500
     21 O7           4.3130    -1.4700    -0.3770 o          1 C04      -0.861300
     22 C9           5.4030     4.3200     5.6920 ce         1 C04       0.204300
     23 C10          8.4110     5.2030     7.4560 c3         1 C04       0.087400
     24 C11          9.7090     4.4780     7.6970 c          1 C04       0.973600
     25 C12          4.1400     4.9800     5.2990 cc         1 C04       0.330000
     26 C13          3.8970     6.2820     5.5460 cd         1 C04      -0.086400
     27 C14          2.0960     5.0120     4.3810 cd         1 C04       0.572300
     28 C15          1.2400     0.3590     2.4810 c3         1 C04       0.184900
     29 C16          4.0460    -0.3170    -0.1000 c          1 C04       0.974800
     30 H1          -0.5420     0.0880     0.9340 ha         1 C04       0.076000
     31 H1A         -0.5420    -0.0880    -0.9340 ha         1 C04       0.076000
     32 H2           1.8770    -0.0880    -0.9340 ha         1 C04       0.144000
     33 HN2          4.0540     2.7890     4.0400 hn         1 C04       0.243500
     34 H5           3.6560    -0.8720     4.1390 h2         1 C04       0.064700
     35 HN5          0.4450     3.7760     4.1560 hn         1 C04       0.275300
     36 HN5A         0.7320     4.8510     2.8260 hn         1 C04       0.275300
     37 H6           5.5970     0.3160     4.8740 h1         1 C04       0.086700
     38 H10          7.9410     5.4280     8.4060 h1         1 C04      -0.010300
     39 H10A         8.6060     6.1260     6.9230 h1         1 C04      -0.010300
     40 H13          4.5720     6.9700     6.0410 h4         1 C04       0.173000
     41 H15          0.4180     1.0160     2.2230 h1         1 C04       0.039700
     42 H15A         0.8440    -0.5890     2.8270 h1         1 C04       0.039700
     43 C8           5.6640     2.9190     5.2870 c          1 C04       0.480800
@<TRIPOS>BOND
     1     1     5 2   
     2     1    30 1   
     3     1    31 1   
     4     2    12 1   
     5     2    15 1   
     6     2    20 1   
     7     3    20 2   
     8     4    26 1   
     9     4    27 1   
    10     5     9 1   
    11     5    32 1   
    12     6    18 1   
    13     6    33 1   
    14     6    43 1   
    15     7    43 2   
    16     8    15 1   
    17     8    28 1   
    18     9    12 2   
    19     9    28 1   
    20    10    11 1   
    21    10    22 2   
    22    11    23 1   
    23    12    29 1   
    24    13    25 1   
    25    13    27 2   
    26    14    24 1   
    27    15    18 1   
    28    15    34 1   
    29    16    27 1   
    30    16    35 1   
    31    16    36 1   
    32    17    24 1   
    33    18    20 1   
    34    18    37 1   
    35    19    29 1   
    36    21    29 1   
    37    22    25 1   
    38    22    43 1   
    39    23    24 1   
    40    23    38 1   
    41    23    39 1   
    42    25    26 2   
    43    26    40 1   
    44    28    41 1   
    45    28    42 1   
@<TRIPOS>SUBSTRUCTURE
     1 C04         1 TEMP              0 ****  ****    0 ROOT
