@<TRIPOS>MOLECULE
C07
   42    45     1     0     0
SMALL
bcc


@<TRIPOS>ATOM
      1 O1           0.0000     0.0000     0.0000 o          1 C07      -0.672500
      2 C7           1.2200     0.0000     0.0000 c          1 C07       0.596700
      3 C8           1.9090     0.0000     1.2380 cc         1 C07      -0.197400
      4 C13          1.0830     0.0130     2.4980 c3         1 C07       0.052800
      5 C12          1.9200    -0.4220     3.6980 c3         1 C07      -0.030400
      6 C11          3.2100     0.4090     3.7120 c3         1 C07      -0.028400
      7 C10          4.0670    -0.0190     2.5220 c3         1 C07      -0.010200
      8 C9           3.2600    -0.0060     1.2520 cd         1 C07       0.022600
      9 C14          3.9580    -0.0020     0.0150 ca         1 C07      -0.356400
     10 C17          3.2470     0.0000    -1.1980 ca         1 C07       0.394200
     11 N3           3.9260     0.0030    -2.3410 nb         1 C07      -0.656000
     12 C16          5.2430     0.0040    -2.3380 ca         1 C07       0.677900
     13 N2           5.9550     0.0030    -1.2270 nb         1 C07      -0.677000
     14 C15          5.3670     0.0060    -0.0330 ca         1 C07       0.587200
     15 N1           6.1160     0.0050     1.1260 nv         1 C07      -0.660500
     16 N            1.8740    -0.0060    -1.1730 n          1 C07       0.142500
     17 C2           1.1550    -0.0070    -2.3750 ca         1 C07      -0.092400
     18 C3           0.8030    -1.2100    -2.9720 ca         1 C07      -0.099000
     19 C4           0.0900    -1.2080    -4.1610 ca         1 C07       0.121100
     20 O           -0.2560    -2.3830    -4.7480 oh         1 C07      -0.500100
     21 C5          -0.2700    -0.0040    -4.7510 ca         1 C07      -0.113000
     22 C6           0.0810     1.1920    -4.1540 ca         1 C07      -0.080000
     23 C1           0.7860     1.1940    -2.9670 ca         1 C07      -0.064300
     24 C            1.1670     2.5000    -2.3190 c3         1 C07       0.051200
     25 H1           0.2480    -0.6670     2.3820 hc         1 C07       0.033700
     26 H2           0.7120     1.0170     2.6680 hc         1 C07       0.033700
     27 H3           2.1660    -1.4730     3.6090 hc         1 C07       0.017700
     28 H4           1.3650    -0.2480     4.6120 hc         1 C07       0.017700
     29 H5           3.7500     0.2290     4.6330 hc         1 C07       0.017200
     30 H6           2.9660     1.4610     3.6240 hc         1 C07       0.017200
     31 H7           4.8860     0.6820     2.4170 hc         1 C07       0.042700
     32 H8           4.4190    -1.0290     2.6970 hc         1 C07       0.042700
     33 H9           5.7640     0.0010    -3.2870 h5         1 C07       0.000100
     34 H10          6.3860    -0.8620     1.5460 hn         1 C07       0.291800
     35 H11          6.4510     0.8690     1.5050 hn         1 C07       0.291800
     36 H12          1.1400    -2.1460    -2.5440 ha         1 C07       0.118000
     37 H13         -1.0740    -2.6840    -4.3890 ho         1 C07       0.405000
     38 H14         -0.8250    -0.0030    -5.6810 ha         1 C07       0.113000
     39 H15         -0.2040     2.1300    -4.6150 ha         1 C07       0.110000
     40 H16          2.2410     2.5370    -2.1850 hc         1 C07       0.014033
     41 H17          0.6800     2.5810    -1.3550 hc         1 C07       0.014033
     42 H18          0.8540     3.3220    -2.9520 hc         1 C07       0.014033
@<TRIPOS>BOND
     1     1     2 2   
     2     2     3 1   
     3     2    16 1   
     4     3     4 1   
     5     3     8 2   
     6     4     5 1   
     7     4    25 1   
     8     4    26 1   
     9     5     6 1   
    10     5    27 1   
    11     5    28 1   
    12     6     7 1   
    13     6    29 1   
    14     6    30 1   
    15     7     8 1   
    16     7    31 1   
    17     7    32 1   
    18     8     9 1   
    19     9    10 ar  
    20     9    14 ar  
    21    10    11 ar  
    22    10    16 1   
    23    11    12 ar  
    24    12    13 ar  
    25    12    33 1   
    26    13    14 ar  
    27    14    15 1   
    28    15    34 1   
    29    15    35 1   
    30    16    17 1   
    31    17    18 ar  
    32    17    23 ar  
    33    18    19 ar  
    34    18    36 1   
    35    19    20 1   
    36    19    21 ar  
    37    20    37 1   
    38    21    22 ar  
    39    21    38 1   
    40    22    23 ar  
    41    22    39 1   
    42    23    24 1   
    43    24    40 1   
    44    24    41 1   
    45    24    42 1   
@<TRIPOS>SUBSTRUCTURE
     1 C07         1 TEMP              0 ****  ****    0 ROOT
