@<TRIPOS>MOLECULE
molecule
   32    34     1     0     0
SMALL
bcc


@<TRIPOS>ATOM
      1 N            0.0000     0.0000     0.0000 nv         1 C09      -1.076500
      2 C            1.3840     0.0000     0.0000 ca         1 C09       0.765200
      3 C4           2.0730     0.0000     1.2340 ca         1 C09      -0.047900
      4 N2           1.6830     0.0020     2.5320 nc         1 C09      -0.570100
      5 C5           2.7340     0.0030     3.3010 cd         1 C09       0.392800
      6 C6           2.7040     0.0040     4.8080 c3         1 C09       0.142100
      7 O            4.0420     0.0030     5.3110 os         1 C09      -0.451600
      8 C7           4.1270     0.0040     6.7370 c3         1 C09       0.142400
      9 C8           5.5970     0.0040     7.1610 c3         1 C09      -0.092100
     10 N3           3.8620     0.0010     2.5400 na         1 C09      -0.210300
     11 C3           3.4710    -0.0000     1.2300 ca         1 C09      -0.085200
     12 C2           4.1500    -0.0010    -0.0580 ca         1 C09      -0.132300
     13 C9           5.5450    -0.0010    -0.1570 ca         1 C09      -0.115000
     14 C10          6.1360    -0.0010    -1.3870 ca         1 C09      -0.131000
     15 C11          5.3650    -0.0020    -2.5440 ca         1 C09      -0.123000
     16 C12          4.0040    -0.0020    -2.4820 ca         1 C09      -0.162300
     17 C1           3.3620    -0.0020    -1.2340 ca         1 C09       0.440600
     18 N1           2.0230    -0.0060    -1.1480 nb         1 C09      -0.725000
     19 H1          -0.5000     0.8670    -0.0170 hn         1 C09       0.439800
     20 H2          -0.5000    -0.8670    -0.0150 hn         1 C09       0.439800
     21 H4           2.1870     0.8890     5.1580 h1         1 C09       0.055700
     22 H5           2.1860    -0.8800     5.1600 h1         1 C09       0.055700
     23 H6           3.6380    -0.8790     7.1290 h1         1 C09       0.027700
     24 H7           3.6390     0.8900     7.1270 h1         1 C09       0.027700
     25 H8           6.0850    -0.8810     6.7710 hc         1 C09       0.047033
     26 H9           5.6610     0.0040     8.2420 hc         1 C09       0.047033
     27 H10          6.0860     0.8880     6.7700 hc         1 C09       0.047033
     28 H12          6.1540    -0.0000     0.7390 ha         1 C09       0.124000
     29 H13          7.2160    -0.0010    -1.4630 ha         1 C09       0.130000
     30 H14          5.8540    -0.0020    -3.5110 ha         1 C09       0.132000
     31 H15          3.4180    -0.0030    -3.3930 ha         1 C09       0.150000
     32 H3           4.8050     0.0010     2.8770 hn         1 C09       0.317700
@<TRIPOS>BOND
     1    15    14 ar
     2    15    16 ar
     3    14    13 ar
     4    16    17 ar
     5    13    12 ar
     6    17    12 ar
     7    17    18 ar
     8    12    11 ar
     9    18     2 ar
    10    11    10 1
    11    11     3 ar
    12     2     3 ar
    13     2     1 1
    14    10     5 1
    15     3     4 1
    16     5     4 2
    17     5     6 1
    18     9     8 1
    19     8     7 1
    20     7     6 1
    21     1    19 1
    22     1    20 1
    23     6    21 1
    24     6    22 1
    25     8    23 1
    26     8    24 1
    27     9    25 1
    28     9    26 1
    29     9    27 1
    30    13    28 1
    31    14    29 1
    32    15    30 1
    33    16    31 1
    34    10    32 1
@<TRIPOS>SUBSTRUCTURE
     1 C09         1 TEMP              0 ****  ****    0 ROOT
