@<TRIPOS>MOLECULE
molecule
   39    39     1     0     0
SMALL
bcc


@<TRIPOS>ATOM
      1 C01          0.0000     0.0000     0.0000 c3         1 C0A       0.104300
      2 N02          1.4650     0.0000     0.0000 ns         1 C0A      -0.588900
      3 C03          2.1400     0.0000     1.1660 c          1 C0A       0.629100
      4 O04          1.5340    -0.0010     2.2170 o          1 C0A      -0.633100
      5 C05          3.6460    -0.0010     1.1660 c3         1 C0A       0.173500
      6 C06          4.1570    -1.2490     0.4440 c3         1 C0A      -0.017100
      7 C07          5.6580    -1.1890     0.3350 ca         1 C0A      -0.129300
      8 C08          6.2480    -0.5890    -0.7620 ca         1 C0A      -0.136000
      9 C09          7.6260    -0.5330    -0.8610 ca         1 C0A      -0.032000
     10 C10          8.4140    -1.0760     0.1360 ca         1 C0A      -0.050300
     11 C11          9.9160    -1.0140     0.0270 c3         1 C0A       0.318700
     12 F12         10.4320    -0.2800     1.1000 f          1 C0A      -0.255300
     13 F13         10.4390    -2.3120     0.0540 f          1 C0A      -0.255300
     14 P14         10.3790    -0.2050    -1.5400 p5         1 C0A       0.978700
     15 O15          9.9010     1.3320    -1.5120 o          1 C0A      -0.870167
     16 O16         11.8480    -0.2630    -1.7090 o          1 C0A      -0.870167
     17 O17          9.6670    -0.9660    -2.7670 o          1 C0A      -0.870167
     18 C18          7.8240    -1.6770     1.2330 ca         1 C0A       0.008100
     19 Br1          8.9020    -2.4190     2.5980 br         1 C0A      -0.135100
     20 C20          6.4460    -1.7270     1.3350 ca         1 C0A      -0.140000
     21 N21          4.1350    -0.0010     2.5470 n7         1 C0A      -0.867100
     22 S22          4.5290     1.4280     3.2870 s6         1 C0A       1.324900
     23 C23          2.9580     2.3270     3.4010 c3         1 C0A      -0.260300
     24 O24          4.9780     1.0420     4.5780 o          1 C0A      -0.614300
     25 O25          5.4040     2.0680     2.3680 o          1 C0A      -0.614300
     26 H1          -0.3610     0.8860     0.5080 h1         1 C0A       0.034033
     27 H2          -0.3610    -0.0030    -1.0210 h1         1 C0A       0.034033
     28 H3          -0.3610    -0.8830     0.5130 h1         1 C0A       0.034033
     29 H4           1.9650     0.0250    -0.8670 hn         1 C0A       0.324500
     30 H5           4.0070     0.8840     0.6550 h1         1 C0A       0.102700
     31 H6           3.7240    -1.2950    -0.5480 hc         1 C0A       0.041200
     32 H7           3.8710    -2.1310     1.0030 hc         1 C0A       0.041200
     33 H8           5.6310    -0.1630    -1.5440 ha         1 C0A       0.109000
     34 H9           8.0880    -0.0630    -1.7210 ha         1 C0A       0.246000
     35 H12          5.9830    -2.1970     2.1950 ha         1 C0A       0.102000
     36 H13          4.1890    -0.8600     3.0580 hn         1 C0A       0.460800
     37 H14          2.2080     1.6880     3.8520 h1         1 C0A       0.090700
     38 H15          2.6350     2.6170     2.4080 h1         1 C0A       0.090700
     39 H16          3.0920     3.2120     4.0100 h1         1 C0A       0.090700
@<TRIPOS>BOND
     1     1     2 1
     2     2     3 1
     3    23    22 1
     4    25    22 2
     5    21    22 1
     6    21     5 1
     7     3     5 1
     8     3     4 2
     9    22    24 2
    10     6     5 1
    11     6     7 1
    12     8     9 ar
    13     8     7 ar
    14     9    10 ar
    15     7    20 ar
    16    13    11 1
    17    16    14 1
    18    20    18 ar
    19    10    18 ar
    20    10    11 1
    21    18    19 1
    22    11    14 1
    23    11    12 1
    24    14    15 1
    25    14    17 1
    26     1    26 1
    27     1    27 1
    28     1    28 1
    29     2    29 1
    30     5    30 1
    31     6    31 1
    32     6    32 1
    33     8    33 1
    34     9    34 1
    35    20    35 1
    36    21    36 1
    37    23    37 1
    38    23    38 1
    39    23    39 1
@<TRIPOS>SUBSTRUCTURE
     1 C0A         1 TEMP              0 ****  ****    0 ROOT
