@<TRIPOS>MOLECULE
C0D
   47    46     1     0     0
SMALL
bcc


@<TRIPOS>ATOM
      1 CAP          0.0000     0.0000     0.0000 c3         1 C0D       0.001567
      2 CAW          1.5300     0.0000     0.0000 c3         1 C0D      -0.073000
      3 CAB          2.0400     0.0000     1.4430 c3         1 C0D       0.001567
      4 CAC          2.0400    -1.2500    -0.7210 c3         1 C0D       0.001567
      5 CAV          2.0400     1.2490    -0.7210 c3         1 C0D       0.132100
      6 OAG          1.4640     2.4130    -0.1250 oh         1 C0D      -0.549800
      7 CAU          3.5420     1.3170    -0.6070 c          1 C0D       0.544100
      8 OAE          4.0580     2.1340     0.1250 o          1 C0D      -0.612100
      9 NAR          4.3110     0.4690    -1.3180 ns         1 C0D      -0.232900
     10 CAN          5.7690     0.6040    -1.2900 c3         1 C0D       0.065000
     11 CAO          6.3990    -0.4740    -2.1740 c3         1 C0D      -0.112400
     12 CAT          7.8990    -0.3340    -2.1460 c          1 C0D       0.573100
     13 OAD          8.4140     0.5410    -1.4830 o          1 C0D      -0.635100
     14 NAQ          8.6680    -1.1830    -2.8570 ns         1 C0D      -0.202900
     15 CAM         10.1260    -1.0470    -2.8290 c3         1 C0D       0.050000
     16 CAL         10.7560    -2.1250    -3.7150 c3         1 C0D      -0.042400
     17 CAK         12.2790    -1.9840    -3.6840 c3         1 C0D      -0.023400
     18 CAJ         12.9080    -3.0610    -4.5700 c3         1 C0D      -0.028400
     19 CAA         14.4320    -2.9200    -4.5410 c3         1 C0D       0.006900
     20 H1          -0.3610     0.8050     0.6280 hc         1 C0D       0.010811
     21 H2          -0.3610    -0.9470     0.3840 hc         1 C0D       0.010811
     22 H3          -0.3610     0.1410    -1.0120 hc         1 C0D       0.010811
     23 H4           1.6430     0.8610     1.9660 hc         1 C0D       0.010811
     24 H5           3.1230     0.0450     1.4430 hc         1 C0D       0.010811
     25 H6           1.7170    -0.9060     1.9400 hc         1 C0D       0.010811
     26 H7           1.3700    -2.0780    -0.5250 hc         1 C0D       0.010811
     27 H8           2.0800    -1.0610    -1.7870 hc         1 C0D       0.010811
     28 H9           3.0320    -1.4950    -0.3600 hc         1 C0D       0.010811
     29 H10          1.7600     1.2020    -1.7670 h1         1 C0D       0.003700
     30 H11          1.3330     3.0730    -0.7860 ho         1 C0D       0.389000
     31 H12          3.8850    -0.2200    -1.9060 hn         1 C0D       0.180500
     32 H13          6.1230     0.4890    -0.2720 h1         1 C0D       0.042700
     33 H14          6.0480     1.5830    -1.6600 h1         1 C0D       0.042700
     34 H15          6.1200    -1.4530    -1.8040 hc         1 C0D       0.026700
     35 H16          6.0450    -0.3580    -3.1920 hc         1 C0D       0.026700
     36 H17          8.2440    -1.9200    -3.3850 hn         1 C0D       0.172500
     37 H18         10.4800    -1.1630    -1.8120 h1         1 C0D       0.028700
     38 H19         10.4050    -0.0680    -3.1990 h1         1 C0D       0.028700
     39 H20         10.4760    -3.1050    -3.3450 hc         1 C0D       0.015700
     40 H21         10.4020    -2.0090    -4.7320 hc         1 C0D       0.015700
     41 H22         12.5580    -1.0040    -4.0540 hc         1 C0D       0.019700
     42 H23         12.6320    -2.1000    -2.6670 hc         1 C0D       0.019700
     43 H24         12.6300    -4.0410    -4.2000 hc         1 C0D       0.011700
     44 H25         12.5540    -2.9450    -5.5870 hc         1 C0D       0.011700
     45 H26         14.7860    -3.0290    -3.5230 hc         1 C0D       0.001700
     46 H27         14.7110    -1.9430    -4.9170 hc         1 C0D       0.001700
     47 H28         14.8780    -3.6870    -5.1630 hc         1 C0D       0.001700
@<TRIPOS>BOND
     1     1     2 1   
     2     1    20 1   
     3     1    21 1   
     4     1    22 1   
     5     2     3 1   
     6     2     4 1   
     7     2     5 1   
     8     3    23 1   
     9     3    24 1   
    10     3    25 1   
    11     4    26 1   
    12     4    27 1   
    13     4    28 1   
    14     5     6 1   
    15     5     7 1   
    16     5    29 1   
    17     6    30 1   
    18     7     8 2   
    19     7     9 1   
    20     9    10 1   
    21     9    31 1   
    22    10    11 1   
    23    10    32 1   
    24    10    33 1   
    25    11    12 1   
    26    11    34 1   
    27    11    35 1   
    28    12    13 2   
    29    12    14 1   
    30    14    15 1   
    31    14    36 1   
    32    15    16 1   
    33    15    37 1   
    34    15    38 1   
    35    16    17 1   
    36    16    39 1   
    37    16    40 1   
    38    17    18 1   
    39    17    41 1   
    40    17    42 1   
    41    18    19 1   
    42    18    43 1   
    43    18    44 1   
    44    19    45 1   
    45    19    46 1   
    46    19    47 1   
@<TRIPOS>SUBSTRUCTURE
     1 C0D         1 TEMP              0 ****  ****    0 ROOT
