@<TRIPOS>MOLECULE
C0E
   25    25     1     0     0
SMALL
bcc


@<TRIPOS>ATOM
      1 OA2         1.7600   -1.0510   -2.5670 o         1 C0E     -0.802800
      2 CA1         2.4010   -0.9950   -1.4770 c         1 C0E      0.898800
      3 OA1         2.4560   -1.9090   -0.6190 o         1 C0E     -0.802800
      4 CA2         3.1500    0.3250   -1.2690 ce        1 C0E      0.040900
      5 OA3         3.0300    1.2160   -2.3000 oh        1 C0E     -0.520100
      6 CA3         3.9240    0.7180   -0.2060 cf        1 C0E     -0.022500
      7 FA3         4.5180    1.9480   -0.2190 f         1 C0E     -0.197500
      8 CA4         4.1240   -0.1260    0.9560 cf        1 C0E     -0.031000
      9 CA5         4.9800    0.0470    1.9720 ce        1 C0E     -0.324200
     10 CA6         5.9530    1.1250    2.1910 c         1 C0E      0.608900
     11 OA4         5.7690    2.0380    3.0100 o         1 C0E     -0.555100
     12 CB1         7.2510    1.0130    1.4730 ca        1 C0E     -0.167600
     13 CB6         8.3950    1.5950    2.0340 ca        1 C0E     -0.057500
     14 CB2         7.3480    0.3370    0.2520 ca        1 C0E     -0.057500
     15 CB3         8.5720    0.2260   -0.4010 ca        1 C0E     -0.187000
     16 CB4         9.7190    0.7990    0.1780 ca        1 C0E      0.127900
     17 FB4        10.9180    0.6890   -0.4450 f         1 C0E     -0.153900
     18 CB5         9.6290    1.4890    1.4020 ca        1 C0E     -0.187000
     19 HOA3        2.4540    0.8020   -2.9770 ho        1 C0E      0.453000
     20 HA4         3.4690   -1.0270    0.9570 ha        1 C0E      0.194000
     21 HA5         4.9840   -0.6840    2.8000 ha        1 C0E      0.136000
     22 HB6         8.3040    2.1470    2.9830 ha        1 C0E      0.161000
     23 HB2         6.4370   -0.0950   -0.2020 ha        1 C0E      0.161000
     24 HB3         8.6490   -0.2990   -1.3630 ha        1 C0E      0.142500
     25 HB5        10.5290    1.9400    1.8410 ha        1 C0E      0.142500
@<TRIPOS>BOND
     1    1    2 1   
     2    2    3 1   
     3    2    4 1   
     4    4    5 1   
     5    4    6 2   
     6    5   19 1   
     7    6    7 1   
     8    6    8 1   
     9    8    9 2   
    10    8   20 1   
    11    9   10 1   
    12    9   21 1   
    13   10   11 2   
    14   10   12 1   
    15   12   13 ar  
    16   12   14 ar  
    17   13   18 ar  
    18   13   22 1   
    19   14   15 ar  
    20   14   23 1   
    21   15   16 ar  
    22   15   24 1   
    23   16   17 1   
    24   16   18 ar  
    25   18   25 1   
@<TRIPOS>SUBSTRUCTURE
     1 C0E         1 TEMP              0 ****  ****    0 ROOT
