@<TRIPOS>MOLECULE
molecule
   25    25     1     0     0
SMALL
bcc


@<TRIPOS>ATOM
      1 OA2          0.0000     0.0000     0.0000 o          1 C0E      -0.805800
      2 CA1          1.3480     0.0000     0.0000 c          1 C0E       0.861800
      3 OA1          1.9560     0.0000     1.0540 o          1 C0E      -0.805800
      4 CA2          2.0840    -0.0010    -1.2730 ce         1 C0E       0.069900
      5 OA3          1.4140    -0.1380    -2.4440 oh         1 C0E      -0.517100
      6 CA3          3.4380     0.1350    -1.2770 cf         1 C0E       0.020500
      7 FA3          4.1310    -0.0340    -2.4240 f          1 C0E      -0.200500
      8 CA4          4.1210     0.4550    -0.0780 cf         1 C0E       0.005000
      9 CA5          5.4760     0.4790    -0.0560 ce         1 C0E      -0.352200
     10 CA6          6.1810     0.8100     1.1820 c          1 C0E       0.581900
     11 OA4          5.5510     1.0630     2.1920 o          1 C0E      -0.542100
     12 CB1          7.6580     0.8360     1.2080 ca         1 C0E      -0.161600
     13 CB6          8.3350     1.1510     2.3890 ca         1 C0E      -0.062000
     14 CB2          8.3840     0.5400     0.0500 ca         1 C0E      -0.062000
     15 CB3          9.7620     0.5670     0.0790 ca         1 C0E      -0.188000
     16 CB4         10.4280     0.8860     1.2530 ca         1 C0E       0.133900
     17 FB4         11.7790     0.9110     1.2760 f          1 C0E      -0.152900
     18 CB5          9.7120     1.1750     2.4060 ca         1 C0E      -0.188000
     19 HOA3         1.2790    -1.0540    -2.6240 ho         1 C0E       0.419000
     20 HA4          3.5610     0.6820     0.8210 ha         1 C0E       0.240000
     21 HA5          6.0370     0.2530    -0.9550 ha         1 C0E       0.120000
     22 HB6          7.7770     1.3770     3.2900 ha         1 C0E       0.155500
     23 HB2          7.8660     0.2910    -0.8680 ha         1 C0E       0.155500
     24 HB3         10.3260     0.3380    -0.8170 ha         1 C0E       0.138000
     25 HB5         10.2370     1.4210     3.3210 ha         1 C0E       0.138000
@<TRIPOS>BOND
     1     5     4 1
     2     4     6 2
     3     4     2 1
     4     3     2 1
     5     7     6 1
     6     6     8 1
     7     2     1 1
     8     8     9 2
     9     9    10 1
    10    11    10 2
    11    10    12 1
    12    12    13 ar
    13    12    14 ar
    14    13    18 ar
    15    14    15 ar
    16    18    16 ar
    17    15    16 ar
    18    16    17 1
    19     5    19 1
    20     8    20 1
    21     9    21 1
    22    13    22 1
    23    14    23 1
    24    15    24 1
    25    18    25 1
@<TRIPOS>SUBSTRUCTURE
     1 C0E         1 TEMP              0 ****  ****    0 ROOT
