@<TRIPOS>MOLECULE
C0G
   48    49     1     0     0
SMALL
bcc


@<TRIPOS>ATOM
      1 C02          0.0000     0.0000     0.0000 c3         1 C0G       0.001567
      2 C03          1.5290     0.0000     0.0000 c3         1 C0G      -0.072000
      3 C04          2.0400     0.0000     1.4420 c3         1 C0G       0.001567
      4 C25          2.0400    -1.2480    -0.7220 c3         1 C0G       0.001567
      5 C05          2.0400     1.2500    -0.7210 c3         1 C0G       0.132100
      6 O24          1.4620     2.4130    -0.1240 oh         1 C0G      -0.549800
      7 C06          3.5400     1.3190    -0.6070 c          1 C0G       0.544100
      8 O23          4.0550     2.1370     0.1250 o          1 C0G      -0.612100
      9 N07          4.3100     0.4710    -1.3190 ns         1 C0G      -0.233900
     10 C08          5.7680     0.6080    -1.2910 c3         1 C0G       0.065000
     11 C09          6.3980    -0.4690    -2.1760 c3         1 C0G      -0.111400
     12 C10          7.8980    -0.3290    -2.1480 c          1 C0G       0.572100
     13 O22          8.4130     0.5460    -1.4850 o          1 C0G      -0.636100
     14 N11          8.6680    -1.1760    -2.8590 ns         1 C0G      -0.200900
     15 C12         10.1270    -1.0400    -2.8320 c3         1 C0G       0.118300
     16 C13         10.7460    -2.1010    -3.7040 ca         1 C0G      -0.129300
     17 C21         10.9790    -1.8450    -5.0430 ca         1 C0G      -0.073000
     18 C17         11.5490    -2.8180    -5.8460 ca         1 C0G       0.055100
     19 O18         11.8780    -2.8200    -7.1710 os         1 C0G      -0.312900
     20 C19         12.0430    -4.2060    -7.5240 c3         1 C0G       0.432200
     21 O20         12.4280    -4.8320    -6.2860 os         1 C0G      -0.312900
     22 C16         11.8870    -4.0550    -5.3020 ca         1 C0G       0.065100
     23 C15         11.6520    -4.3050    -3.9600 ca         1 C0G      -0.089000
     24 C14         11.0860    -3.3260    -3.1630 ca         1 C0G      -0.083000
     25 H1          -0.3610    -0.9480     0.3810 hc         1 C0G       0.010811
     26 H2          -0.3610     0.1440    -1.0110 hc         1 C0G       0.010811
     27 H3          -0.3610     0.8040     0.6300 hc         1 C0G       0.010811
     28 H4           3.1220     0.0450     1.4420 hc         1 C0G       0.010811
     29 H5           1.7160    -0.9060     1.9400 hc         1 C0G       0.010811
     30 H6           1.6430     0.8610     1.9660 hc         1 C0G       0.010811
     31 H7           2.0810    -1.0580    -1.7870 hc         1 C0G       0.010811
     32 H8           3.0310    -1.4940    -0.3610 hc         1 C0G       0.010811
     33 H9           1.3700    -2.0770    -0.5280 hc         1 C0G       0.010811
     34 H10          1.7590     1.2030    -1.7660 h1         1 C0G       0.003700
     35 H11          1.3290     3.0720    -0.7840 ho         1 C0G       0.389000
     36 H12          3.8830    -0.2160    -1.9080 hn         1 C0G       0.181500
     37 H13          6.0460     1.5870    -1.6610 h1         1 C0G       0.042700
     38 H14          6.1230     0.4920    -0.2740 h1         1 C0G       0.042700
     39 H15          6.1200    -1.4490    -1.8070 hc         1 C0G       0.026700
     40 H16          6.0440    -0.3530    -3.1930 hc         1 C0G       0.026700
     41 H17          8.2430    -1.8960    -3.4100 hn         1 C0G       0.175500
     42 H18         10.4810    -1.1560    -1.8150 h1         1 C0G       0.031700
     43 H19         10.4050    -0.0610    -3.2020 h1         1 C0G       0.031700
     44 H20         10.7500    -0.8690    -5.4540 ha         1 C0G       0.118000
     45 H21         11.0980    -4.6140    -7.8640 h2         1 C0G       0.015700
     46 H22         12.8400    -4.3080    -8.2510 h2         1 C0G       0.015700
     47 H23         11.9180    -5.2640    -3.5340 ha         1 C0G       0.116000
     48 H24         10.9240    -3.5150    -2.1090 ha         1 C0G       0.114000
@<TRIPOS>BOND
     1     1     2 1   
     2     1    25 1   
     3     1    26 1   
     4     1    27 1   
     5     2     3 1   
     6     2     4 1   
     7     2     5 1   
     8     3    28 1   
     9     3    29 1   
    10     3    30 1   
    11     4    31 1   
    12     4    32 1   
    13     4    33 1   
    14     5     6 1   
    15     5     7 1   
    16     5    34 1   
    17     6    35 1   
    18     7     8 2   
    19     7     9 1   
    20     9    10 1   
    21     9    36 1   
    22    10    11 1   
    23    10    37 1   
    24    10    38 1   
    25    11    12 1   
    26    11    39 1   
    27    11    40 1   
    28    12    13 2   
    29    12    14 1   
    30    14    15 1   
    31    14    41 1   
    32    15    16 1   
    33    15    42 1   
    34    15    43 1   
    35    16    17 ar  
    36    16    24 ar  
    37    17    18 ar  
    38    17    44 1   
    39    18    19 1   
    40    18    22 ar  
    41    19    20 1   
    42    20    21 1   
    43    20    45 1   
    44    20    46 1   
    45    21    22 1   
    46    22    23 ar  
    47    23    24 ar  
    48    23    47 1   
    49    24    48 1   
@<TRIPOS>SUBSTRUCTURE
     1 C0G         1 TEMP              0 ****  ****    0 ROOT
