@<TRIPOS>MOLECULE
C0H
   23    24     1     0     0
SMALL
bcc


@<TRIPOS>ATOM
      1 C1           0.0000     0.0000     0.0000 ca         1 C0H      -0.111000
      2 C2           1.3830     0.0000     0.0000 ca         1 C0H      -0.077000
      3 C3           2.0760     0.0000     1.1950 ca         1 C0H      -0.072600
      4 C7          -0.2800    -1.5770     5.7650 ca         1 C0H       0.714900
      5 C8           1.5190    -0.8860     7.0180 ca         1 C0H       0.796900
      6 Cl           3.8120     0.0030     1.1950 cl         1 C0H      -0.025400
      7 C4           1.3800    -0.0010     2.4000 ca         1 C0H      -0.000400
      8 C5          -0.0080    -0.0020     2.3950 ca         1 C0H      -0.118000
      9 C           -0.6940     0.0030     1.1970 ca         1 C0H      -0.075000
     10 N            2.0780    -0.0010     3.6120 nu         1 C0H      -0.261300
     11 C6           1.4830    -0.5040     4.7510 ca         1 C0H       0.733900
     12 N3           2.0970    -0.4000     5.9250 nb         1 C0H      -0.742000
     13 N2           0.3280    -1.4750     6.9340 nb         1 C0H      -0.734000
     14 N1           0.2920    -1.0950     4.6760 nb         1 C0H      -0.746000
     15 H1          -0.5410     0.0020    -0.9390 ha         1 C0H       0.107000
     16 H2           1.9240    -0.0030    -0.9390 ha         1 C0H       0.114000
     17 H5          -1.2490    -2.0570     5.6990 h5         1 C0H       0.001100
     18 H3          -0.5530    -0.0010     3.3310 ha         1 C0H       0.154000
     19 H           -1.7770     0.0030     1.1940 ha         1 C0H       0.105000
     20 H4           2.9990     0.3890     3.6590 hn         1 C0H       0.302800
     21 H7           1.9990     0.0260     8.8140 hn         1 C0H       0.285300
     22 H6           2.7740    -1.5010     8.5460 hn         1 C0H       0.285300
     23 N4           2.1520    -0.7790     8.2390 nv         1 C0H      -0.637500
@<TRIPOS>BOND
     1     1     2 ar  
     2     1     9 ar  
     3     1    15 1   
     4     2     3 ar  
     5     2    16 1   
     6     3     6 1   
     7     3     7 ar  
     8     4    13 ar  
     9     4    14 ar  
    10     4    17 1   
    11     5    12 ar  
    12     5    13 ar  
    13     5    23 1   
    14     7     8 ar  
    15     7    10 1   
    16     8     9 ar  
    17     8    18 1   
    18     9    19 1   
    19    10    11 1   
    20    10    20 1   
    21    11    12 ar  
    22    11    14 ar  
    23    21    23 1   
    24    22    23 1   
@<TRIPOS>SUBSTRUCTURE
     1 C0H         1 TEMP              0 ****  ****    0 ROOT
