@<TRIPOS>MOLECULE
molecule
   23    24     1     0     0
SMALL
bcc


@<TRIPOS>ATOM
      1 C1           0.0000     0.0000     0.0000 ca         1 C0H      -0.143000
      2 C2           1.3830     0.0000     0.0000 ca         1 C0H      -0.101000
      3 C3           2.0760     0.0000     1.1950 ca         1 C0H      -0.013600
      4 C7          -0.2800    -1.5770     5.7650 ca         1 C0H       0.752900
      5 C8           1.5190    -0.8860     7.0180 ca         1 C0H       1.003900
      6 Cl           3.8120     0.0030     1.1950 cl         1 C0H      -0.111400
      7 C4           1.3800    -0.0010     2.4000 ca         1 C0H       0.165600
      8 C5          -0.0080    -0.0020     2.3950 ca         1 C0H      -0.130000
      9 C           -0.6940     0.0030     1.1970 ca         1 C0H      -0.108000
     10 N            2.0780    -0.0010     3.6120 nu         1 C0H      -0.738300
     11 C6           1.4830    -0.5040     4.7510 ca         1 C0H       0.969900
     12 N3           2.0970    -0.4000     5.9250 nb         1 C0H      -0.848000
     13 N2           0.3280    -1.4750     6.9340 nb         1 C0H      -0.832000
     14 N1           0.2920    -1.0950     4.6760 nb         1 C0H      -0.848000
     15 H1          -0.5410     0.0020    -0.9390 ha         1 C0H       0.136000
     16 H2           1.9240    -0.0030    -0.9390 ha         1 C0H       0.145000
     17 H5          -1.2490    -2.0570     5.6990 h5         1 C0H       0.065100
     18 H3          -0.5530    -0.0010     3.3310 ha         1 C0H       0.177000
     19 H           -1.7770     0.0030     1.1940 ha         1 C0H       0.136000
     20 H4           2.9990     0.3890     3.6590 hn         1 C0H       0.479800
     21 H7           1.9990     0.0260     8.8140 hn         1 C0H       0.451300
     22 H6           2.7740    -1.5010     8.5460 hn         1 C0H       0.451300
     23 N4           2.1520    -0.7790     8.2390 nv         1 C0H      -1.059500
@<TRIPOS>BOND
     1     4    13 ar
     2     4    14 ar
     3    13     5 ar
     4    14    11 ar
     5     5    23 1
     6     5    12 ar
     7    11    12 ar
     8    11    10 1
     9    10     7 1
    10     6     3 1
    11     7     3 ar
    12     7     8 ar
    13     3     2 ar
    14     8     9 ar
    15     2     1 ar
    16     9     1 ar
    17     1    15 1
    18     2    16 1
    19     4    17 1
    20     8    18 1
    21     9    19 1
    22    10    20 1
    23    23    21 1
    24    23    22 1
@<TRIPOS>SUBSTRUCTURE
     1 C0H         1 TEMP              0 ****  ****    0 ROOT
