@<TRIPOS>MOLECULE
molecule
   30    31     1     0     0
SMALL
bcc


@<TRIPOS>ATOM
      1 C12          0.0000     0.0000     0.0000 ca         1 C0J      -0.113000
      2 C13         -0.7210    -0.0010    -1.2370 cg         1 C0J       0.237800
      3 C11          7.5570     0.9760    -1.9460 ca         1 C0J       0.420200
      4 C10          8.3080     0.0260    -2.6090 ca         1 C0J      -0.247300
      5 C9           7.6600    -0.9780    -3.3110 ca         1 C0J      -0.095000
      6 C8           6.2740    -0.9870    -3.3220 ca         1 C0J      -0.271300
      7 C7           5.5890    -0.0030    -2.6350 ca         1 C0J       0.456600
      8 C4           1.4040     0.0000     0.0000 ca         1 C0J       0.201600
      9 C5           3.5680    -0.0020    -1.1980 c3         1 C0J      -0.011200
     10 C6           4.0820    -0.0020    -2.6400 c3         1 C0J      -0.199700
     11 C3           2.0920     0.0000     1.2050 ca         1 C0J      -0.170000
     12 C2           1.3980     0.0010     2.4000 ca         1 C0J      -0.032000
     13 C1           0.0140     0.0000     2.4060 ca         1 C0J      -0.205000
     14 N2          -1.3040    -0.0160    -2.2120 n1         1 C0J      -0.349800
     15 C           -0.6900     0.0060     1.2180 ca         1 C0J       0.177900
     16 F           -2.0410     0.0070     1.2300 f          1 C0J      -0.121900
     17 N            2.1030    -0.0010    -1.2020 nu         1 C0J      -0.794600
     18 N1           6.2390     0.9340    -1.9730 nb         1 C0J      -0.666000
     19 H10          9.3730     0.0370    -2.4110 ha         1 C0J       0.137000
     20 H9           7.9550    -1.7500    -4.0130 ha         1 C0J       0.142000
     21 H8           5.7530    -1.6890    -3.9620 ha         1 C0J       0.134000
     22 H5           2.5250     0.0610    -0.9110 h1         1 C0J       0.150200
     23 H4           3.7530    -0.9900    -0.7960 h1         1 C0J       0.150200
     24 H6           3.8430     0.9830    -3.0230 hc         1 C0J       0.044200
     25 H7           3.7150    -0.4490    -3.5560 hc         1 C0J       0.044200
     26 H2           2.9830    -0.6020     1.3410 ha         1 C0J       0.165000
     27 H1           1.9730    -0.0410     3.3170 ha         1 C0J       0.153000
     28 H           -0.8270    -0.0660     3.0870 ha         1 C0J       0.163000
     29 H3           1.8970     0.1160    -2.1750 hn         1 C0J       0.471800
     30 H11          8.0970     1.7150    -1.3670 h4         1 C0J       0.024100
@<TRIPOS>BOND
     1    12    13 ar
     2    12    11 ar
     3    13    15 ar
     4    11     8 ar
     5    15    16 1
     6    15     1 ar
     7     8     1 ar
     8     8    17 1
     9     1     2 1
    10    17     9 1
    11     9    10 1
    12     2    14 3
    13    18     3 ar
    14    18     7 ar
    15    10     7 1
    16     3     4 ar
    17     7     6 ar
    18     4     5 ar
    19     6     5 ar
    20     3    30 1
    21     4    19 1
    22     5    20 1
    23     6    21 1
    24     9    22 1
    25     9    23 1
    26    10    24 1
    27    10    25 1
    28    11    26 1
    29    12    27 1
    30    13    28 1
    31    17    29 1
@<TRIPOS>SUBSTRUCTURE
     1 C0J         1 TEMP              0 ****  ****    0 ROOT
