@<TRIPOS>MOLECULE
molecule
   32    32     1     0     0
SMALL
bcc


@<TRIPOS>ATOM
      1 C1           0.0000     0.0000     0.0000 ca         1 C0K      -0.162000
      2 C2           1.3830     0.0000     0.0000 ca         1 C0K      -0.123000
      3 C3           2.0750     0.0000     1.1960 ca         1 C0K       0.048700
      4 C4           1.3870     0.0000     2.3950 ca         1 C0K      -0.119000
      5 C5           0.0030     0.0010     2.3990 ca         1 C0K       0.080900
      6 C6          -0.6910     0.0060     1.2000 ca         1 C0K       0.018900
      7 C7           3.5830    -0.0010     1.1920 c3         1 C0K      -0.176600
      8 P8           4.1930     1.6590     1.6360 p5         1 C0K       1.011700
      9 O9           3.7180     2.0240     3.1300 o          1 C0K      -0.889167
     10 O10          5.6710     1.6750     1.5690 o          1 C0K      -0.889167
     11 O11          3.5970     2.7420     0.6040 o          1 C0K      -0.889167
     12 C12          4.0940    -1.0210     2.2120 c3         1 C0K      -0.025400
     13 C13          5.6160    -1.1290     2.1060 c3         1 C0K      -0.158400
     14 C14          6.1070    -2.2260     3.0150 c          1 C0K       0.686100
     15 O15          5.3170    -2.8590     3.6820 o          1 C0K      -0.632100
     16 N16          7.4240    -2.5030     3.0870 n          1 C0K      -0.391300
     17 C17          7.9010    -3.5700     3.9710 c3         1 C0K       0.098300
     18 O18          8.3460    -1.7640     2.3070 oh         1 C0K      -0.356100
     19 F19         -0.6700     0.0020     3.5700 f          1 C0K      -0.165900
     20 F20         -2.0430     0.0070     1.2000 f          1 C0K      -0.180900
     21 H1          -0.5420     0.0020    -0.9380 ha         1 C0K       0.109000
     22 H2           1.9240    -0.0030    -0.9390 ha         1 C0K       0.131000
     23 H4           1.9320    -0.0020     3.3320 ha         1 C0K       0.185000
     24 H7           3.9420    -0.2660     0.2050 hc         1 C0K       0.044700
     25 H12          3.6480    -1.9880     2.0110 hc         1 C0K       0.031700
     26 H12A         3.8230    -0.7000     3.2110 hc         1 C0K       0.031700
     27 H13          5.8910    -1.3580     1.0830 hc         1 C0K       0.110200
     28 H13A         6.0660    -0.1880     2.3990 hc         1 C0K       0.110200
     29 H17          8.9840    -3.5910     3.9600 h1         1 C0K       0.030367
     30 H17A         7.5530    -3.3850     4.9800 h1         1 C0K       0.030367
     31 H17B         7.5170    -4.5230     3.6260 h1         1 C0K       0.030367
     32 HO18         8.8340    -2.3520     1.7550 ho         1 C0K       0.369000
@<TRIPOS>BOND
     1     2     1 ar
     2     6     1 ar
     3     1    21 1
     4     3     2 ar
     5     2    22 1
     6     7     3 1
     7     4     3 ar
     8     4     5 ar
     9     4    23 1
    10     5    19 1
    11     5     6 ar
    12     6    20 1
    13    12     7 1
    14     7     8 1
    15     7    24 1
    16    10     8 1
    17     8    11 1
    18     8     9 1
    19    13    12 1
    20    12    25 1
    21    12    26 1
    22    14    13 1
    23    13    27 1
    24    13    28 1
    25    15    14 2
    26    16    14 1
    27    18    16 1
    28    16    17 1
    29    17    29 1
    30    17    30 1
    31    17    31 1
    32    18    32 1
@<TRIPOS>SUBSTRUCTURE
     1 C0K         1 TEMP              0 ****  ****    0 ROOT
