@<TRIPOS>MOLECULE
C0L
   79    84     1     0     0
SMALL
bcc


@<TRIPOS>ATOM
      1 C01          0.0000     0.0000     0.0000 DU         1 C0L       0.041000
      2 C02          1.5080     0.0000     0.0000 c2         1 C0L      -0.151000
      3 C03          2.1630     0.0000     1.1350 c2         1 C0L      -0.134000
      4 C04          3.6700    -0.0000     1.1340 DU         1 C0L       0.010000
      5 C05          4.1730     1.1640     1.9480 c2         1 C0L      -0.204000
      6 C06          4.9160     0.9520     3.0050 c2         1 C0L      -0.124000
      7 C07          5.2110    -0.4590     3.4480 c3         1 C0L      -0.072000
      8 C08          5.4770     2.1170     3.7790 c3         1 C0L       0.126000
      9 C09          4.8670     2.1380     5.1820 c3         1 C0L      -0.107000
     10 C10          5.3390     3.3890     5.9250 c3         1 C0L      -0.073000
     11 C11          4.7390     3.4110     7.3070 c2         1 C0L       0.055000
     12 C12          5.4290     2.9240     8.3430 c2         1 C0L      -0.419000
     13 C13          4.8640     2.9430     9.6420 c3         1 C0L      -0.113000
     14 C14          5.5650     2.4480    10.6960 c2         1 C0L      -0.124000
     15 C15          6.9440     1.8780    10.4830 c3         1 C0L      -0.040000
     16 C16          5.0040     2.4680    11.9860 c2         1 C0L       0.299000
     17 C17          3.8710     1.6890    12.2720 c2         1 C0L      -0.386000
     18 C18          3.1660     1.8100    13.5570 c2         1 C0L       0.373000
     19 C20          2.0270     0.9830    13.7650 c2         1 C0L      -0.334000
     20 C21          1.6350     0.1350    12.8030 c2         1 C0L       0.134000
     21 C23          3.3610     0.7590    11.3270 c2         1 C0L       0.431000
     22 C25          0.4300    -0.7330    13.0520 c3         1 C0L      -0.054000
     23 C26          0.8360    -2.2060    12.9700 c3         1 C0L      -0.118000
     24 C27         -0.6370    -0.4390    11.9950 c3         1 C0L      -0.114000
     25 C28         -1.9080    -1.2280    12.3190 DU         1 C0L       0.104000
     26 C29         -2.9580    -0.9380    11.2790 c2         1 C0L      -0.639000
     27 C30         -3.5210    -1.9290    10.6150 c2         1 C0L      -0.088000
     28 C32         -5.0660    -2.6740     8.9760 c2         1 C0L       0.327000
     29 C35         -6.5810    -3.5550     7.3550 c3         1 C0L       0.098000
     30 C37          3.3600     3.9800     7.5200 c3         1 C0L      -0.143000
     31 N31         -4.4920    -1.6610     9.6530 ny         1 C0L       0.134000
     32 O19          3.5450     2.5910    14.4160 o          1 C0L      -0.330000
     33 O22          2.2770     0.0240    11.6320 os         1 C0L      -0.149000
     34 O24          3.9060     0.6240    10.2460 o          1 C0L      -0.334000
     35 O33         -4.7370    -3.8220     9.2030 o          1 C0L      -0.372000
     36 O34         -6.0050    -2.4160     8.0460 os         1 C0L      -0.265000
     37 O36          5.5550     3.2360    12.9510 oh         1 C0L      -0.205000
     38 O38          6.8960     1.9840     3.8780 oh         1 C0L      -0.302000
     39 H012        -0.3610     0.3480     0.9600 ha         1 C0L       0.029333
     40 H013        -0.3610    -1.0060    -0.1780 ha         1 C0L       0.029333
     41 H011        -0.3610     0.6570    -0.7820 ha         1 C0L       0.029333
     42 H021         0.8960     0.8750     0.1840 DU         1 C0L       0.002000
     43 H031         2.7740     0.8750     0.9510 DU         1 C0L       0.056000
     44 H041         4.0300     0.0880     0.1160 ha         1 C0L       0.070500
     45 H042         4.0310    -0.9260     1.5660 ha         1 C0L       0.070500
     46 H051         3.9610     2.1780     1.6300 ha         1 C0L       0.108000
     47 H072         4.2960    -0.9290     3.7880 hc         1 C0L       0.058000
     48 H073         5.6190    -1.0210     2.6170 hc         1 C0L       0.058000
     49 H071         5.9290    -0.4390     4.2590 hc         1 C0L       0.058000
     50 H081         5.2360     3.0400     3.2660 h1         1 C0L       0.036000
     51 H092         5.1810     1.2550     5.7260 hc         1 C0L       0.075000
     52 H091         3.7860     2.1500     5.1060 hc         1 C0L       0.075000
     53 H101         5.0250     4.2720     5.3810 hc         1 C0L       0.067000
     54 H102         6.4200     3.3780     6.0020 hc         1 C0L       0.067000
     55 H121         5.3810     3.8020     8.9760 DU         1 C0L       0.274000
     56 H131         3.8870     3.3840     9.8010 hc         1 C0L       0.092000
     57 H152         6.9040     1.1160     9.7140 hc         1 C0L       0.061000
     58 H153         7.3010     1.4400    11.4070 hc         1 C0L       0.061000
     59 H151         7.6170     2.6680    10.1740 hc         1 C0L       0.061000
     60 H201         1.5300     0.9770    14.7280 ha         1 C0L       0.145000
     61 H251         0.0300    -0.5230    14.0360 hc         1 C0L       0.081000
     62 H263         0.8580    -2.5180    11.9330 hc         1 C0L       0.052333
     63 H261         0.1180    -2.8090    13.5130 hc         1 C0L       0.052333
     64 H262         1.8190    -2.3340    13.4070 hc         1 C0L       0.052333
     65 H271        -0.2690    -0.7320    11.0190 hc         1 C0L       0.077000
     66 H272        -0.8610     0.6210    11.9940 hc         1 C0L       0.077000
     67 H281        -1.6840    -2.2880    12.3200 ha         1 C0L       0.043000
     68 H282        -2.2760    -0.9350    13.2950 ha         1 C0L       0.043000
     69 H291        -3.1700    -1.2920    12.2800 DU         1 C0L       0.194000
     70 H301        -4.5530    -1.6870    10.8380 DU         1 C0L       0.216000
     71 H352        -7.3140    -3.2090     6.6360 h1         1 C0L       0.044333
     72 H353        -5.7980    -4.0980     6.8380 h1         1 C0L       0.044333
     73 H351        -7.0600    -4.2090     8.0730 h1         1 C0L       0.044333
     74 H373         2.9840     4.3760     6.5850 hc         1 C0L       0.060667
     75 H371         2.6980     3.1990     7.8740 hc         1 C0L       0.060667
     76 H372         3.4070     4.7740     8.2550 hc         1 C0L       0.060667
     77 H381         7.3100     2.5450     3.2440 ho         1 C0L       0.186000
     78 H311        -4.7310    -0.7140     9.4350 hn         1 C0L       0.071000
     79 H1           5.5500     4.1380    12.6760 ho         1 C0L       0.216000
@<TRIPOS>BOND
     1     1     2 1   
     2     1    39 1   
     3     1    40 1   
     4     1    41 1   
     5     1    42 1   
     6     2     3 1   
     7     2    42 1   
     8     3     4 1   
     9     3    43 1   
    10     4     5 1   
    11     4    43 1   
    12     4    44 1   
    13     4    45 1   
    14     5     6 1   
    15     5    46 1   
    16     6     7 1   
    17     6     8 1   
    18     7    47 1   
    19     7    48 1   
    20     7    49 1   
    21     8     9 1   
    22     8    38 1   
    23     8    50 1   
    24     9    10 1   
    25     9    51 1   
    26     9    52 1   
    27    10    11 1   
    28    10    53 1   
    29    10    54 1   
    30    11    12 1   
    31    11    30 1   
    32    12    13 1   
    33    12    55 1   
    34    13    14 1   
    35    13    55 1   
    36    13    56 1   
    37    14    15 1   
    38    14    16 1   
    39    15    57 1   
    40    15    58 1   
    41    15    59 1   
    42    16    17 1   
    43    16    37 1   
    44    17    18 1   
    45    17    21 1   
    46    18    19 1   
    47    18    32 1   
    48    19    20 1   
    49    19    60 1   
    50    20    22 1   
    51    20    33 1   
    52    21    33 1   
    53    21    34 1   
    54    22    23 1   
    55    22    24 1   
    56    22    61 1   
    57    23    62 1   
    58    23    63 1   
    59    23    64 1   
    60    24    25 1   
    61    24    65 1   
    62    24    66 1   
    63    25    26 1   
    64    25    67 1   
    65    25    68 1   
    66    25    69 1   
    67    26    27 1   
    68    26    69 1   
    69    27    31 1   
    70    27    70 1   
    71    28    31 1   
    72    28    35 1   
    73    28    36 1   
    74    29    36 1   
    75    29    71 1   
    76    29    72 1   
    77    29    73 1   
    78    30    74 1   
    79    30    75 1   
    80    30    76 1   
    81    31    70 1   
    82    31    78 1   
    83    37    79 1   
    84    38    77 1   
@<TRIPOS>SUBSTRUCTURE
     1 C0L         1 TEMP              0 ****  ****    0 ROOT
