@<TRIPOS>MOLECULE
molecule
   79    79     1     0     0
SMALL
bcc


@<TRIPOS>ATOM
      1 C01          0.0000     0.0000     0.0000 c3         1 C0L      -0.066900
      2 C02          1.5080     0.0000     0.0000 c2         1 C0L      -0.130200
      3 C03          2.1630     0.0000     1.1350 c2         1 C0L      -0.234200
      4 C04          3.6700    -0.0000     1.1340 c3         1 C0L      -0.056000
      5 C05          4.1730     1.1640     1.9480 c2         1 C0L      -0.515200
      6 C06          4.9160     0.9520     3.0050 c2         1 C0L      -0.000400
      7 C07          5.2110    -0.4590     3.4480 c3         1 C0L      -0.122900
      8 C08          5.4770     2.1170     3.7790 c3         1 C0L       0.182300
      9 C09          4.8670     2.1380     5.1820 c3         1 C0L      -0.074400
     10 C10          5.3390     3.3890     5.9250 c3         1 C0L      -0.059200
     11 C11          4.7390     3.4110     7.3070 c2         1 C0L      -0.013400
     12 C12          5.4290     2.9240     8.3430 ce         1 C0L      -0.225000
     13 C13          4.8640     2.9430     9.6420 ce         1 C0L      -0.329000
     14 C14          5.5650     2.4480    10.6960 cf         1 C0L      -0.093200
     15 C15          6.9440     1.8780    10.4830 c3         1 C0L      -0.085900
     16 C16          5.0040     2.4680    11.9860 cf         1 C0L       0.329100
     17 C17          3.8710     1.6890    12.2720 cc         1 C0L      -0.369400
     18 C18          3.1660     1.8100    13.5570 c          1 C0L       0.583500
     19 C20          2.0270     0.9830    13.7650 cd         1 C0L      -0.353200
     20 C21          1.6350     0.1350    12.8030 cc         1 C0L       0.164900
     21 C23          3.3610     0.7590    11.3270 c          1 C0L       0.768800
     22 C25          0.4300    -0.7330    13.0520 c3         1 C0L      -0.028500
     23 C26          0.8360    -2.2060    12.9700 c3         1 C0L      -0.089100
     24 C27         -0.6370    -0.4390    11.9950 c3         1 C0L      -0.074400
     25 C28         -1.9080    -1.2280    12.3190 c3         1 C0L      -0.026200
     26 C29         -2.9580    -0.9380    11.2790 c2         1 C0L      -0.259200
     27 C30         -3.5210    -1.9290    10.6150 c2         1 C0L       0.001600
     28 C32         -5.0660    -2.6740     8.9760 c          1 C0L       0.748100
     29 C35         -6.5810    -3.5550     7.3550 c3         1 C0L       0.158700
     30 C37          3.3600     3.9800     7.5200 c3         1 C0L      -0.057900
     31 N31         -4.4920    -1.6610     9.6530 ns         1 C0L      -0.466100
     32 O19          3.5450     2.5910    14.4160 o          1 C0L      -0.530100
     33 O22          2.2770     0.0240    11.6320 os         1 C0L      -0.321200
     34 O24          3.9060     0.6240    10.2460 o          1 C0L      -0.566500
     35 O33         -4.7370    -3.8220     9.2030 o          1 C0L      -0.599000
     36 O34         -6.0050    -2.4160     8.0460 os         1 C0L      -0.439900
     37 O36          5.5550     3.2360    12.9510 oh         1 C0L      -0.496100
     38 O38          6.8960     1.9840     3.8780 oh         1 C0L      -0.606800
     39 H012        -0.3610    -0.8960     0.4900 hc         1 C0L       0.045033
     40 H013        -0.3610     0.0240    -1.0210 hc         1 C0L       0.045033
     41 H011        -0.3610     0.8720     0.5310 hc         1 C0L       0.045033
     42 H021         2.0490    -0.0000    -0.9380 ha         1 C0L       0.130000
     43 H031         1.6210    -0.0000     2.0730 ha         1 C0L       0.127000
     44 H041         4.0310    -0.9260     1.5660 hc         1 C0L       0.066700
     45 H042         4.0300     0.0880     0.1160 hc         1 C0L       0.066700
     46 H051         3.3070     0.5780     2.2300 ha         1 C0L       0.359000
     47 H072         5.9090    -0.4380     4.2770 hc         1 C0L       0.053700
     48 H073         4.2920    -0.9380     3.7630 hc         1 C0L       0.053700
     49 H071         5.6440    -1.0130     2.6250 hc         1 C0L       0.053700
     50 H081         5.2360     3.0400     3.2660 h1         1 C0L       0.067700
     51 H092         3.7860     2.1500     5.1060 hc         1 C0L       0.060700
     52 H091         5.1810     1.2550     5.7260 hc         1 C0L       0.060700
     53 H101         5.0260     4.2720     5.3810 hc         1 C0L       0.059700
     54 H102         6.4200     3.3780     6.0020 hc         1 C0L       0.059700
     55 H121         6.4200     2.5140     8.1900 ha         1 C0L       0.117000
     56 H131         5.6090     3.6450     9.2890 ha         1 C0L       0.330000
     57 H152         7.3000     1.4390    11.4070 hc         1 C0L       0.049367
     58 H153         7.6170     2.6680    10.1750 hc         1 C0L       0.049367
     59 H151         6.9040     1.1170     9.7130 hc         1 C0L       0.049367
     60 H201         1.5300     0.9770    14.7280 ha         1 C0L       0.166000
     61 H251         0.0300    -0.5230    14.0360 hc         1 C0L       0.074700
     62 H263         0.1140    -2.8100    13.5060 hc         1 C0L       0.044367
     63 H261         0.8660    -2.5160    11.9320 hc         1 C0L       0.044367
     64 H262         1.8150    -2.3360    13.4140 hc         1 C0L       0.044367
     65 H271        -0.8610     0.6210    11.9940 hc         1 C0L       0.057200
     66 H272        -0.2690    -0.7320    11.0190 hc         1 C0L       0.057200
     67 H281        -1.6840    -2.2880    12.3210 hc         1 C0L       0.047700
     68 H282        -2.2760    -0.9350    13.2950 hc         1 C0L       0.047700
     69 H291        -3.2510     0.0850    11.0750 ha         1 C0L       0.126000
     70 H301        -3.2280    -2.9520    10.8190 h4         1 C0L       0.175000
     71 H352        -5.7980    -4.0960     6.8360 h1         1 C0L       0.051700
     72 H353        -7.3160    -3.2090     6.6380 h1         1 C0L       0.051700
     73 H351        -7.0580    -4.2110     8.0730 h1         1 C0L       0.051700
     74 H373         3.3900     4.7060     8.3240 hc         1 C0L       0.059033
     75 H371         3.0230     4.4620     6.6100 hc         1 C0L       0.059033
     76 H372         2.6760     3.1810     7.7800 hc         1 C0L       0.059033
     77 H381         7.3070     2.4730     3.1850 ho         1 C0L       0.410000
     78 H311        -4.7760    -0.7170     9.4780 hn         1 C0L       0.331500
     79 H1           6.3060     2.7960    13.3130 ho         1 C0L       0.441000
@<TRIPOS>BOND
     1    35    28 2
     2    36    29 1
     3    36    28 1
     4    28    31 1
     5    27    31 1
     6    27    26 2
     7    25    26 1
     8    25    24 1
     9    23    22 1
    10    22    24 1
    11    22    20 1
    12    20    33 1
    13    20    19 2
    14    33    21 1
    15    19    18 1
    16    21    34 2
    17    21    17 1
    18    18    17 1
    19    18    32 2
    20    17    16 2
    21    30    11 1
    22    16    37 1
    23    16    14 1
    24    11    10 1
    25    11    12 2
    26    13    14 2
    27    13    12 1
    28    14    15 1
    29    10     9 1
    30     9     8 1
    31     8    38 1
    32     8     6 1
    33     5     6 2
    34     5     4 1
    35     6     7 1
    36     2     1 1
    37     2     3 2
    38     4     3 1
    39     1    39 1
    40     1    40 1
    41     1    41 1
    42     2    42 1
    43     3    43 1
    44     4    44 1
    45     4    45 1
    46     5    46 1
    47     7    47 1
    48     7    48 1
    49     7    49 1
    50     8    50 1
    51     9    51 1
    52     9    52 1
    53    10    53 1
    54    10    54 1
    55    12    55 1
    56    13    56 1
    57    15    57 1
    58    15    58 1
    59    15    59 1
    60    19    60 1
    61    22    61 1
    62    23    62 1
    63    23    63 1
    64    23    64 1
    65    24    65 1
    66    24    66 1
    67    25    67 1
    68    25    68 1
    69    26    69 1
    70    27    70 1
    71    29    71 1
    72    29    72 1
    73    29    73 1
    74    30    74 1
    75    30    75 1
    76    30    76 1
    77    38    77 1
    78    31    78 1
    79    37    79 1
@<TRIPOS>SUBSTRUCTURE
     1 C0L         1 TEMP              0 ****  ****    0 ROOT
