@<TRIPOS>MOLECULE
C0M
   62    66     1     0     0
SMALL
bcc


@<TRIPOS>ATOM
      1 C1           0.0000     0.0000     0.0000 c3         1 C0M       0.018900
      2 C2           1.4940     0.0000     0.0000 cc         1 C0M      -0.055300
      3 O26         -1.8690     0.8210     3.4270 o          1 C0M      -0.624100
      4 C25         -0.6420     0.7020     3.4820 c          1 C0M       0.625100
      5 C27          0.0970     1.2110     4.6940 c3         1 C0M      -0.125400
      6 C28         -0.8760     1.8130     5.6890 c3         1 C0M       0.160800
      7 N29         -0.1720     2.3250     6.8640 n3         1 C0M      -0.624600
      8 C34          0.5530     1.2400     7.5410 c3         1 C0M       0.095300
      9 C33          1.3350     1.7670     8.7460 c3         1 C0M      -0.040900
     10 C32          0.4220     2.5030     9.7200 c3         1 C0M       0.008600
     11 C31         -0.3850     3.5710     8.9910 c3         1 C0M      -0.040900
     12 C30         -1.1130     2.9860     7.7790 c3         1 C0M       0.095300
     13 N5           0.1370     0.1170     2.4800 n          1 C0M      -0.145800
     14 C6          -0.5310    -0.5340     1.3370 c3         1 C0M       0.029000
     15 C4           1.6100    -0.0230     2.5560 c3         1 C0M       0.158300
     16 C3           2.2050     0.0000     1.1830 cd         1 C0M      -0.089400
     17 S9           3.8900     0.0050     0.9300 ss         1 C0M      -0.132800
     18 C8           3.6870     0.0160    -0.7700 cd         1 C0M       0.074500
     19 C7           2.3560     0.0140    -1.1340 cc         1 C0M      -0.065000
     20 C10          1.9250     0.0270    -2.4980 cg         1 C0M       0.260800
     21 N11          1.5950     0.0330    -3.6100 n1         1 C0M      -0.399800
     22 N12          4.8320     0.0280    -1.5210 ns         1 C0M      -0.040100
     23 C13          6.1910     0.0300    -1.0930 c          1 C0M       0.566700
     24 O14          6.5220     0.0210     0.0910 o          1 C0M      -0.563100
     25 C15          7.2040     0.0840    -2.1610 ca         1 C0M      -0.143600
     26 C20          7.6440    -1.1370    -2.6570 ca         1 C0M      -0.075000
     27 C19          8.6000    -1.1630    -3.6680 ca         1 C0M      -0.102000
     28 C18          9.1100     0.0310    -4.1790 ca         1 C0M      -0.055000
     29 C16          7.6970     1.2950    -2.6550 ca         1 C0M       0.024000
     30 C21          7.2560     2.5330    -2.1590 ca         1 C0M      -0.100000
     31 C22          7.7660     3.7260    -2.6690 ca         1 C0M      -0.065000
     32 C23          8.7220     3.7000    -3.6810 ca         1 C0M      -0.150000
     33 C24          9.1710     2.4790    -4.1860 ca         1 C0M      -0.123000
     34 C17          8.6690     1.2680    -3.6830 ca         1 C0M      -0.036000
     35 H11         -0.0790     0.9330    -0.5450 hc         1 C0M       0.037200
     36 H12         -0.1670    -0.7290    -0.7840 hc         1 C0M       0.037200
     37 H271         0.6670     2.0570     4.3290 hc         1 C0M       0.053200
     38 H272         0.7010     0.5670     5.3230 hc         1 C0M       0.053200
     39 H281        -1.6350     2.5410     5.4260 h1         1 C0M       0.020200
     40 H282        -1.3500     1.0310     6.2700 h1         1 C0M       0.020200
     41 H341         1.3060     0.7960     6.9020 h1         1 C0M       0.020450
     42 H342        -0.2850     0.6840     7.9430 h1         1 C0M       0.020450
     43 H331         2.1140     2.1580     8.1040 hc         1 C0M       0.036200
     44 H332         1.5280     0.7540     9.0790 hc         1 C0M       0.036200
     45 H321        -0.4490     1.8640     9.7920 hc         1 C0M       0.039200
     46 H322         0.9070     3.0740    10.5030 hc         1 C0M       0.039200
     47 H311        -1.3170     3.8280     9.4790 hc         1 C0M       0.036200
     48 H312         0.1530     4.3000     8.3980 hc         1 C0M       0.036200
     49 H301        -1.8150     2.1610     7.7610 h1         1 C0M       0.020450
     50 H302        -1.4600     3.5930     6.9520 h1         1 C0M       0.020450
     51 H61         -1.2970     0.2330     1.3220 h1         1 C0M       0.053700
     52 H62         -0.9670    -1.5040     1.1350 h1         1 C0M       0.053700
     53 H41          1.9240    -0.7740     3.2710 h1         1 C0M       0.014700
     54 H42          2.0010     0.7880     3.1580 h1         1 C0M       0.014700
     55 HN12         5.1540    -0.2050    -2.4390 hn         1 C0M       0.195500
     56 H20          7.5680    -2.0900    -2.1480 ha         1 C0M       0.120000
     57 H19          8.8540    -2.1470    -4.0440 ha         1 C0M       0.111000
     58 H18          9.8090     0.2350    -4.9810 ha         1 C0M       0.114000
     59 H21          6.9540     2.7420    -1.1400 ha         1 C0M       0.124000
     60 H22          7.7780     4.7260    -2.2540 ha         1 C0M       0.112000
     61 H23          9.1540     4.3400    -4.4400 ha         1 C0M       0.121000
     62 H24          9.5980     2.7970    -5.1290 ha         1 C0M       0.118000
@<TRIPOS>BOND
     1     1     2 1   
     2     1    14 1   
     3     1    35 1   
     4     1    36 1   
     5     2    16 2   
     6     2    19 1   
     7     3     4 2   
     8     4     5 1   
     9     4    13 1   
    10     5     6 1   
    11     5    37 1   
    12     5    38 1   
    13     6     7 1   
    14     6    39 1   
    15     6    40 1   
    16     7     8 1   
    17     7    12 1   
    18     8     9 1   
    19     8    41 1   
    20     8    42 1   
    21     9    10 1   
    22     9    43 1   
    23     9    44 1   
    24    10    11 1   
    25    10    45 1   
    26    10    46 1   
    27    11    12 1   
    28    11    47 1   
    29    11    48 1   
    30    12    49 1   
    31    12    50 1   
    32    13    14 1   
    33    13    15 1   
    34    14    51 1   
    35    14    52 1   
    36    15    16 1   
    37    15    53 1   
    38    15    54 1   
    39    16    17 1   
    40    17    18 1   
    41    18    19 2   
    42    18    22 1   
    43    19    20 1   
    44    20    21 3   
    45    22    23 1   
    46    22    55 1   
    47    23    24 2   
    48    23    25 1   
    49    25    26 ar  
    50    25    29 ar  
    51    26    27 ar  
    52    26    56 1   
    53    27    28 ar  
    54    27    57 1   
    55    28    34 ar  
    56    28    58 1   
    57    29    30 ar  
    58    29    34 ar  
    59    30    31 ar  
    60    30    59 1   
    61    31    32 ar  
    62    31    60 1   
    63    32    33 ar  
    64    32    61 1   
    65    33    34 ar  
    66    33    62 1   
@<TRIPOS>SUBSTRUCTURE
     1 C0M         1 TEMP              0 ****  ****    0 ROOT
