@<TRIPOS>MOLECULE
C0P
   42    44     1     0     0
SMALL
bcc


@<TRIPOS>ATOM
      1 N1           0.0000     0.0000     0.0000 nv         1 C0P      -0.524500
      2 C2           1.3840     0.0000     0.0000 ca         1 C0P       0.719900
      3 N3           2.0300     0.0000     1.1590 nb         1 C0P      -0.666000
      4 C4           3.3540    -0.0010     1.2010 ca         1 C0P       0.472300
      5 Cl5          4.1830    -0.0020     2.7260 cl         1 C0P      -0.076000
      6 C6           4.0690    -0.0000     0.0140 ca         1 C0P      -0.384600
      7 C7           3.3600     0.0010    -1.1890 cp         1 C0P       0.515800
      8 N8           2.0290    -0.0050    -1.1550 nb         1 C0P      -0.662000
      9 C9           4.0800     0.0010    -2.4860 cp         1 C0P      -0.109500
     10 C10          5.1300    -0.8890    -2.7040 ca         1 C0P      -0.184000
     11 C11          5.7980    -0.8830    -3.9160 ca         1 C0P       0.153100
     12 O12          6.8230    -1.7500    -4.1300 os         1 C0P      -0.276900
     13 C13          7.1570    -2.6380    -3.0620 c3         1 C0P       0.194400
     14 C14          8.3250    -3.5290    -3.4860 c3         1 C0P       0.150800
     15 N15          9.5220    -2.7040    -3.6930 n3         1 C0P      -0.528600
     16 C17         10.5970    -3.4830    -4.3260 c3         1 C0P       0.107300
     17 C18         11.8010    -2.5710    -4.5780 c3         1 C0P       0.215400
     18 O19         12.2140    -1.9840    -3.3410 os         1 C0P      -0.412600
     19 C20         11.1920    -1.2170    -2.6980 c3         1 C0P       0.215400
     20 C21          9.9830    -2.1150    -2.4270 c3         1 C0P       0.107300
     21 C22          5.4210     0.0080    -4.9130 ca         1 C0P      -0.063600
     22 Cl23         6.2600     0.0100    -6.4330 cl         1 C0P       0.006600
     23 C24          4.3790     0.8900    -4.7000 ca         1 C0P      -0.066000
     24 C25          3.7030     0.8880    -3.4950 ca         1 C0P      -0.040600
     25 Cl26         2.3890     1.9930    -3.2330 cl         1 C0P       0.002600
     26 H11N        -0.5000    -0.5100    -0.7010 hn         1 C0P       0.278300
     27 H12N        -0.5000     0.5250     0.6900 hn         1 C0P       0.278300
     28 H6           5.1520     0.0020     0.0190 ha         1 C0P       0.137000
     29 H10          5.3680    -1.6380    -1.9580 ha         1 C0P       0.130000
     30 H131         7.4400    -2.0620    -2.1890 h1         1 C0P       0.006700
     31 H132         6.2990    -3.2550    -2.8240 h1         1 C0P       0.006700
     32 H141         8.0740    -4.0390    -4.4080 h1         1 C0P       0.020700
     33 H142         8.5210    -4.2610    -2.7110 h1         1 C0P       0.020700
     34 H171        10.2440    -3.8830    -5.2690 h1         1 C0P       0.017450
     35 H172        10.8890    -4.2930    -3.6700 h1         1 C0P       0.017450
     36 H211        10.2670    -2.9060    -1.7440 h1         1 C0P       0.017450
     37 H212         9.1850    -1.5250    -1.9930 h1         1 C0P       0.017450
     38 H181        12.6150    -3.1540    -4.9900 h1         1 C0P       0.014450
     39 H182        11.5210    -1.7880    -5.2730 h1         1 C0P       0.014450
     40 H201        10.8960    -0.3980    -3.3430 h1         1 C0P       0.014450
     41 H202        11.5700    -0.8280    -1.7600 h1         1 C0P       0.014450
     42 H24          4.0870     1.5810    -5.4810 ha         1 C0P       0.127000
@<TRIPOS>BOND
     1     1     2 1   
     2     1    26 1   
     3     1    27 1   
     4     2     3 ar  
     5     2     8 ar  
     6     3     4 ar  
     7     4     5 1   
     8     4     6 ar  
     9     6     7 ar  
    10     6    28 1   
    11     7     8 ar  
    12     7     9 1   
    13     9    10 ar  
    14     9    24 ar  
    15    10    11 ar  
    16    10    29 1   
    17    11    12 1   
    18    11    21 ar  
    19    12    13 1   
    20    13    14 1   
    21    13    30 1   
    22    13    31 1   
    23    14    15 1   
    24    14    32 1   
    25    14    33 1   
    26    15    16 1   
    27    15    20 1   
    28    16    17 1   
    29    16    34 1   
    30    16    35 1   
    31    17    18 1   
    32    17    38 1   
    33    17    39 1   
    34    18    19 1   
    35    19    20 1   
    36    19    40 1   
    37    19    41 1   
    38    20    36 1   
    39    20    37 1   
    40    21    22 1   
    41    21    23 ar  
    42    23    24 ar  
    43    23    42 1   
    44    24    25 1   
@<TRIPOS>SUBSTRUCTURE
     1 C0P         1 TEMP              0 ****  ****    0 ROOT
