@<TRIPOS>MOLECULE
molecule
   55    58     1     0     0
SMALL
bcc


@<TRIPOS>ATOM
      1 C1           0.0000     0.0000     0.0000 c3         1 C0R      -0.065400
      2 C2           1.5280     0.0000     0.0000 c3         1 C0R      -0.178400
      3 C3           1.9820     0.0000     1.4460 c          1 C0R       0.571300
      4 C4           1.3650    -0.9990     2.3250 ce         1 C0R      -0.266200
      5 C5           0.1930    -1.5440     1.9970 c2         1 C0R      -0.037400
      6 C6          -0.3900    -2.5850     2.9350 c3         1 C0R      -0.050200
      7 C7          -1.8540    -2.2380     3.2090 c3         1 C0R      -0.075400
      8 C8          -2.6010    -2.1170     1.8780 c3         1 C0R      -0.061700
      9 C9          -2.0330    -0.9230     1.0950 c3         1 C0R      -0.045700
     10 C10         -0.5620    -1.2010     0.7650 c3         1 C0R      -0.027800
     11 C11         -2.8010    -0.6800    -0.2020 c3         1 C0R       0.151100
     12 C12         -4.3080    -0.5160     0.0510 c3         1 C0R      -0.093400
     13 C13         -4.7840    -1.7790     0.7480 c3         1 C0R      -0.047000
     14 C14         -4.0790    -1.8230     2.1300 c3         1 C0R      -0.068700
     15 C15         -4.8670    -2.8910     2.8810 c3         1 C0R      -0.071400
     16 C16         -6.3020    -2.8270     2.2990 c3         1 C0R      -0.067400
     17 C17         -6.2680    -1.8050     1.1330 c3         1 C0R      -0.162700
     18 C18         -4.4230    -3.0130    -0.0800 c3         1 C0R      -0.067100
     19 C19         -0.5050    -2.4200    -0.1590 c3         1 C0R      -0.073100
     20 C20         -7.1500    -2.2610    -0.0010 c          1 C0R       0.565100
     21 C21         -8.5850    -1.8050    -0.0680 c3         1 C0R       0.040400
     22 O1           2.8110     0.7850     1.8560 o          1 C0R      -0.526100
     23 O2          -2.5950    -1.7900    -1.0790 oh         1 C0R      -0.597800
     24 O3          -6.7070    -2.9900    -0.8550 o          1 C0R      -0.483100
     25 O4          -9.2090    -2.3660    -1.2250 oh         1 C0R      -0.583800
     26 H11A        -0.3520    -0.0380    -1.0240 hc         1 C0R       0.047700
     27 H12         -0.3520     0.9120     0.4670 hc         1 C0R       0.047700
     28 H21          1.8950    -0.8880    -0.5000 hc         1 C0R       0.069700
     29 H22          1.8950     0.8880    -0.5000 hc         1 C0R       0.069700
     30 H4           1.8690    -1.3060     3.2340 ha         1 C0R       0.150000
     31 H61          0.1640    -2.5840     3.8660 hc         1 C0R       0.056200
     32 H62         -0.3300    -3.5630     2.4720 hc         1 C0R       0.056200
     33 H71         -2.3050    -3.0220     3.8060 hc         1 C0R       0.047200
     34 H72         -1.9080    -1.2950     3.7400 hc         1 C0R       0.047200
     35 H8          -2.4920    -3.0280     1.3030 hc         1 C0R       0.086700
     36 H9          -2.0950    -0.0350     1.7120 hc         1 C0R       0.060700
     37 H11         -2.4240     0.2210    -0.6700 h1         1 C0R       0.031700
     38 H121        -4.4830     0.3430     0.6860 hc         1 C0R       0.048200
     39 H122        -4.8280    -0.3980    -0.8920 hc         1 C0R       0.048200
     40 H14         -4.1850    -0.8670     2.6280 hc         1 C0R       0.050700
     41 H151        -4.4350    -3.8680     2.7050 hc         1 C0R       0.047700
     42 H152        -4.8840    -2.6660     3.9410 hc         1 C0R       0.047700
     43 H161        -6.9950    -2.4950     3.0610 hc         1 C0R       0.048200
     44 H162        -6.5920    -3.8020     1.9260 hc         1 C0R       0.048200
     45 H17         -6.5770    -0.8290     1.4860 hc         1 C0R       0.060700
     46 H181        -5.0460    -3.8460     0.2240 hc         1 C0R       0.047700
     47 H182        -3.3820    -3.2640     0.0800 hc         1 C0R       0.047700
     48 H183        -4.5870    -2.8040    -1.1300 hc         1 C0R       0.047700
     49 H191         0.4290    -2.9460    -0.0040 hc         1 C0R       0.043700
     50 H192        -0.5700    -2.0950    -1.1900 hc         1 C0R       0.043700
     51 H193        -1.3340    -3.0810     0.0650 hc         1 C0R       0.043700
     52 H211        -9.1110    -2.1330     0.8200 h1         1 C0R       0.040700
     53 H212        -8.6180    -0.7240    -0.1290 h1         1 C0R       0.040700
     54 HO2         -2.6760    -1.5030    -1.9730 ho         1 C0R       0.395000
     55 HO4        -10.1000    -2.0640    -1.2790 ho         1 C0R       0.403000
@<TRIPOS>BOND
     1     1     2 1
     2     1    10 1
     3     1    26 1
     4     1    27 1
     5     2     3 1
     6     2    28 1
     7     2    29 1
     8     3     4 1
     9     3    22 2
    10     4     5 2
    11     4    30 1
    12     5     6 1
    13     5    10 1
    14     6     7 1
    15     6    31 1
    16     6    32 1
    17     7     8 1
    18     7    33 1
    19     7    34 1
    20     8     9 1
    21     8    14 1
    22     8    35 1
    23     9    10 1
    24     9    11 1
    25     9    36 1
    26    10    19 1
    27    11    12 1
    28    11    23 1
    29    11    37 1
    30    12    13 1
    31    12    38 1
    32    12    39 1
    33    13    14 1
    34    13    17 1
    35    13    18 1
    36    14    15 1
    37    14    40 1
    38    15    16 1
    39    15    41 1
    40    15    42 1
    41    16    17 1
    42    16    43 1
    43    16    44 1
    44    17    20 1
    45    17    45 1
    46    18    46 1
    47    18    47 1
    48    18    48 1
    49    19    49 1
    50    19    50 1
    51    19    51 1
    52    20    21 1
    53    20    24 2
    54    21    25 1
    55    21    52 1
    56    21    53 1
    57    23    54 1
    58    25    55 1
@<TRIPOS>SUBSTRUCTURE
     1 C0R         1 TEMP              0 ****  ****    0 ROOT
