@<TRIPOS>MOLECULE
C0R
   55    58     1     0     0
SMALL
bcc


@<TRIPOS>ATOM
      1 C1         -0.1270    0.1560    0.1490 c3        1 C0R     -0.071400
      2 C2          1.3650    0.3880    0.2130 c3        1 C0R     -0.181400
      3 C3          1.8710    0.2690    1.6230 c         1 C0R      0.569300
      4 C4          1.2530   -0.7970    2.4200 ce        1 C0R     -0.265200
      5 C5          0.1660   -1.4800    2.0220 c2        1 C0R     -0.031400
      6 C6         -0.3440   -2.6270    2.8250 c3        1 C0R     -0.054200
      7 C7         -1.8330   -2.5320    3.0670 c3        1 C0R     -0.072400
      8 C8         -2.5940   -2.3640    1.7620 c3        1 C0R     -0.048700
      9 C9         -2.0750   -1.1370    0.9990 c3        1 C0R     -0.039700
     10 C10        -0.5560   -1.2030    0.7240 c3        1 C0R     -0.005800
     11 C11        -2.9130   -0.8190   -0.2530 c3        1 C0R      0.153100
     12 C12        -4.4210   -0.7720    0.0300 c3        1 C0R     -0.106400
     13 C13        -4.9010   -2.0150    0.7580 c3        1 C0R     -0.034000
     14 C14        -4.0660   -2.1390    2.0520 c3        1 C0R     -0.062700
     15 C15        -4.8310   -3.1550    2.8890 c3        1 C0R     -0.072400
     16 C16        -6.3030   -2.8930    2.5540 c3        1 C0R     -0.075400
     17 C17        -6.3330   -1.9360    1.3480 c3        1 C0R     -0.162700
     18 C18        -4.8110   -3.2370   -0.1410 c3        1 C0R     -0.104100
     19 C19        -0.1750   -2.3070   -0.2590 c3        1 C0R     -0.079100
     20 C20        -7.4040   -2.2790    0.3540 c         1 C0R      0.544100
     21 C21        -7.9730   -1.1100   -0.4180 c3        1 C0R      0.029400
     22 O1          2.7670    0.9970    2.0670 o         1 C0R     -0.536100
     23 O2         -2.5970   -1.7470   -1.2830 oh        1 C0R     -0.598800
     24 O3         -7.8450   -3.4190    0.1730 o         1 C0R     -0.529100
     25 O4         -8.6250   -1.5020   -1.6050 oh        1 C0R     -0.589800
     26 H11A       -0.6450    0.9780    0.7120 hc        1 C0R      0.049700
     27 H12        -0.4590    0.2170   -0.9210 hc        1 C0R      0.049700
     28 H21         1.6130    1.4010   -0.1990 hc        1 C0R      0.072200
     29 H22         1.9030   -0.3750   -0.4120 hc        1 C0R      0.072200
     30 H4          1.7530   -1.0200    3.3780 ha        1 C0R      0.148000
     31 H61         0.1900   -2.6890    3.8100 hc        1 C0R      0.057200
     32 H62        -0.1150   -3.5730    2.2580 hc        1 C0R      0.057200
     33 H71        -2.1890   -3.4610    3.5850 hc        1 C0R      0.047200
     34 H72        -2.0490   -1.6650    3.7460 hc        1 C0R      0.047200
     35 H8         -2.4570   -3.2850    1.1350 hc        1 C0R      0.071700
     36 H9         -2.2310   -0.2470    1.6810 hc        1 C0R      0.050700
     37 H11        -2.6110    0.2080   -0.6210 h1        1 C0R      0.032700
     38 H121       -4.6360    0.1370    0.6510 hc        1 C0R      0.048700
     39 H122       -4.9700   -0.6570   -0.9420 hc        1 C0R      0.048700
     40 H14        -4.1440   -1.1500    2.5960 hc        1 C0R      0.044700
     41 H151       -4.5400   -4.1990    2.6150 hc        1 C0R      0.049200
     42 H152       -4.6300   -3.0170    3.9790 hc        1 C0R      0.049200
     43 H161       -6.8320   -2.4290    3.4210 hc        1 C0R      0.058200
     44 H162       -6.8230   -3.8520    2.3020 hc        1 C0R      0.058200
     45 H17        -6.5150   -0.8870    1.7090 hc        1 C0R      0.063700
     46 H181       -3.7530   -3.4710   -0.4080 hc        1 C0R      0.051033
     47 H182       -5.3800   -3.0530   -1.0860 hc        1 C0R      0.051033
     48 H183       -5.2580   -4.1250    0.3690 hc        1 C0R      0.051033
     49 H191       -0.4210   -2.0040   -1.3050 hc        1 C0R      0.045367
     50 H192        0.9220   -2.5120   -0.1990 hc        1 C0R      0.045367
     51 H193       -0.7300   -3.2470   -0.0290 hc        1 C0R      0.045367
     52 H211       -8.6910   -0.5570    0.2480 h1        1 C0R      0.066700
     53 H212       -7.1540   -0.4120   -0.7450 h1        1 C0R      0.066700
     54 HO2        -3.3060   -1.7030   -1.9370 ho        1 C0R      0.403000
     55 HO4        -9.1080   -2.3200   -1.4200 ho        1 C0R      0.421000
@<TRIPOS>BOND
     1    1    2 1   
     2    1   10 1   
     3    1   26 1   
     4    1   27 1   
     5    2    3 1   
     6    2   28 1   
     7    2   29 1   
     8    3    4 1   
     9    3   22 2   
    10    4    5 2   
    11    4   30 1   
    12    5    6 1   
    13    5   10 1   
    14    6    7 1   
    15    6   31 1   
    16    6   32 1   
    17    7    8 1   
    18    7   33 1   
    19    7   34 1   
    20    8    9 1   
    21    8   14 1   
    22    8   35 1   
    23    9   10 1   
    24    9   11 1   
    25    9   36 1   
    26   10   19 1   
    27   11   12 1   
    28   11   23 1   
    29   11   37 1   
    30   12   13 1   
    31   12   38 1   
    32   12   39 1   
    33   13   14 1   
    34   13   17 1   
    35   13   18 1   
    36   14   15 1   
    37   14   40 1   
    38   15   16 1   
    39   15   41 1   
    40   15   42 1   
    41   16   17 1   
    42   16   43 1   
    43   16   44 1   
    44   17   20 1   
    45   17   45 1   
    46   18   46 1   
    47   18   47 1   
    48   18   48 1   
    49   19   49 1   
    50   19   50 1   
    51   19   51 1   
    52   20   21 1   
    53   20   24 2   
    54   21   25 1   
    55   21   52 1   
    56   21   53 1   
    57   23   54 1   
    58   25   55 1   
@<TRIPOS>SUBSTRUCTURE
     1 C0R         1 TEMP              0 ****  ****    0 ROOT
