@<TRIPOS>MOLECULE
molecule
   66    68     1     0     0
SMALL
bcc


@<TRIPOS>ATOM
      1 C1           0.0000     0.0000     0.0000 c          1 C0T       0.574300
      2 N1           2.1110     0.0020    -1.2140 ns         1 C0T      -0.483100
      3 O1          -0.5760     0.0180    -1.0700 o          1 C0T      -0.498100
      4 S1           2.0340     3.1060     4.3850 ss         1 C0T      -0.189100
      5 C2           1.4110     0.0000     0.0000 ce         1 C0T      -0.013600
      6 N2           9.6990     1.5220     2.2720 n7         1 C0T      -0.561700
      7 O2           1.1120    -1.8670    -1.8730 o          1 C0T      -0.575000
      8 S2           2.3050     2.4730     6.3160 ss         1 C0T      -0.020000
      9 C3           2.0910     0.0000     1.1730 cf         1 C0T      -0.024200
     10 O3           2.6820    -1.0530    -3.2150 os         1 C0T      -0.443900
     11 S3           4.0250     3.4360     6.8800 ss         1 C0T      -0.202100
     12 C4           1.3810     0.0420     2.4060 cf         1 C0T      -0.121200
     13 O4          -0.6620    -0.0460     3.6670 oh         1 C0T      -0.586800
     14 C5          -0.0370    -0.4770     2.4660 c3         1 C0T       0.321100
     15 O5           4.1700     0.8230     2.0670 os         1 C0T      -0.377600
     16 C6          -0.8230    -0.0160     1.2500 c3         1 C0T      -0.189400
     17 O6          10.5820     0.6870     3.0880 oh         1 C0T      -0.446300
     18 C7           1.9380    -1.0040    -2.0930 c          1 C0T       0.754100
     19 O7           6.3450    -0.0230     2.0200 os         1 C0T      -0.422600
     20 C8           2.4410    -2.1670    -4.1160 c3         1 C0T       0.159700
     21 O8           5.2320     3.4510     2.3620 oh         1 C0T      -0.602800
     22 C9           0.0620    -1.9610     2.4610 c1         1 C0T      -0.187100
     23 O9           7.9500     3.5950     3.2450 oh         1 C0T      -0.588800
     24 C10          0.7120    -2.9720     2.5230 cg         1 C0T      -0.115300
     25 C11          1.6750    -3.9150     3.0170 ce         1 C0T      -0.001700
     26 C12          2.9960    -3.7270     2.8410 cf         1 C0T      -0.001700
     27 C13          3.5090    -2.5920     2.1400 ch         1 C0T      -0.129300
     28 C14          3.8540    -1.5280     1.7270 c1         1 C0T      -0.131100
     29 C15          3.5900    -0.1560     1.2020 c3         1 C0T       0.277400
     30 C16          1.9640     0.5370     3.5020 c2         1 C0T      -0.062200
     31 C17          2.8050     1.7840     3.4100 c3         1 C0T       0.056900
     32 C18          3.4060     4.9240     7.7120 c3         1 C0T      -0.006000
     33 C19          5.5340     1.1270     1.7690 c3         1 C0T       0.338900
     34 C20          6.0040     2.2840     2.6530 c3         1 C0T       0.114100
     35 C21          7.4830     2.5650     2.3710 c3         1 C0T       0.132100
     36 C22          8.2890     1.2850     2.6120 c3         1 C0T       0.105500
     37 C23          7.7320     0.1660     1.7280 c3         1 C0T       0.122100
     38 C24          8.4920    -1.1320     2.0070 c3         1 C0T      -0.086100
     39 HN1          2.7060     0.7730    -1.4460 hn         1 C0T       0.334500
     40 HO4         -1.4740    -0.5110     3.7830 ho         1 C0T       0.423000
     41 H6          -1.1940     0.9840     1.4350 hc         1 C0T       0.091200
     42 H6A         -1.6630    -0.6850     1.1050 hc         1 C0T       0.091200
     43 H8           3.1020    -2.0890    -4.9710 h1         1 C0T       0.051700
     44 H8A          2.6300    -3.0990    -3.5970 h1         1 C0T       0.051700
     45 H8B          1.4120    -2.1430    -4.4520 h1         1 C0T       0.051700
     46 HO8          5.3470     4.0840     3.0520 ho         1 C0T       0.426000
     47 HO9          8.3170     4.2980     2.7340 ho         1 C0T       0.413000
     48 H11          1.3310    -4.7980     3.5420 ha         1 C0T       0.147000
     49 H12          3.6890    -4.4580     3.2390 ha         1 C0T       0.146000
     50 H15          3.9920    -0.0600     0.2000 h1         1 C0T       0.069700
     51 H16          1.3680     0.5120     4.4060 ha         1 C0T       0.152000
     52 H17          3.7960     1.5810     3.7980 h1         1 C0T       0.109700
     53 H17A         2.8780     2.0950     2.3750 h1         1 C0T       0.109700
     54 H18          4.1050     5.2230     8.4830 h1         1 C0T       0.070700
     55 H18A         2.4420     4.7130     8.1600 h1         1 C0T       0.070700
     56 H18B         3.3010     5.7240     6.9890 h1         1 C0T       0.070700
     57 H19          5.6270     1.4110     0.7270 h2         1 C0T       0.038700
     58 H20          5.8810     2.0140     3.6950 h1         1 C0T       0.074700
     59 H21          7.6010     2.8770     1.3400 h1         1 C0T       0.044700
     60 H22          8.2060     0.9970     3.6530 h1         1 C0T       0.110700
     61 H23          7.8460     0.4400     0.6870 h1         1 C0T       0.031700
     62 H24          9.4450    -1.1100     1.4910 hc         1 C0T       0.055367
     63 H24A         7.9100    -1.9740     1.6540 hc         1 C0T       0.055367
     64 H24B         8.6610    -1.2300     3.0720 hc         1 C0T       0.055367
     65 H27          9.8290     1.3000     1.3050 hn         1 C0T       0.348800
     66 H28         11.3750     1.1600     3.2780 ho         1 C0T       0.418000
@<TRIPOS>BOND
     1     1    16 1
     2     2     5 1
     3     2    39 1
     4     3     1 2
     5     4     8 1
     6     5     1 1
     7     6    17 1
     8     6    36 1
     9     7    18 2
    10     9     5 2
    11     9    12 1
    12    10    18 1
    13    11     8 1
    14    12    14 1
    15    13    40 1
    16    14    13 1
    17    14    22 1
    18    15    29 1
    19    16    14 1
    20    16    41 1
    21    16    42 1
    22    18     2 1
    23    20    10 1
    24    20    43 1
    25    20    44 1
    26    20    45 1
    27    21    34 1
    28    21    46 1
    29    22    24 3
    30    23    35 1
    31    23    47 1
    32    25    24 1
    33    25    48 1
    34    26    25 2
    35    26    49 1
    36    27    26 1
    37    28    27 3
    38    29     9 1
    39    29    28 1
    40    29    50 1
    41    30    12 2
    42    30    51 1
    43    31     4 1
    44    31    30 1
    45    31    52 1
    46    31    53 1
    47    32    11 1
    48    32    54 1
    49    32    55 1
    50    32    56 1
    51    33    15 1
    52    33    19 1
    53    33    57 1
    54    34    33 1
    55    34    58 1
    56    35    34 1
    57    35    36 1
    58    35    59 1
    59    36    37 1
    60    36    60 1
    61    37    19 1
    62    37    38 1
    63    37    61 1
    64    38    62 1
    65    38    63 1
    66    38    64 1
    67     6    65 1
    68    17    66 1
@<TRIPOS>SUBSTRUCTURE
     1 C0T         1 TEMP              0 ****  ****    0 ROOT
