@<TRIPOS>MOLECULE
C0T
   66    68     1     0     0
SMALL
bcc


@<TRIPOS>ATOM
      1 C1           0.0000     0.0000     0.0000 c          1 C0T       0.619300
      2 N1           2.1110     0.0020    -1.2140 ns         1 C0T      -0.035100
      3 O1          -0.5760     0.0180    -1.0700 o          1 C0T      -0.538100
      4 S1           2.0340     3.1060     4.3850 ss         1 C0T      -0.210100
      5 C2           1.4110     0.0000     0.0000 ce         1 C0T      -0.165600
      6 N2           9.6990     1.5220     2.2720 n7         1 C0T      -0.350700
      7 O2           1.1120    -1.8670    -1.8730 o          1 C0T      -0.624000
      8 S2           2.3050     2.4730     6.3160 ss         1 C0T      -0.023000
      9 C3           2.0910     0.0000     1.1730 cf         1 C0T      -0.027200
     10 O3           2.6820    -1.0530    -3.2150 os         1 C0T      -0.430900
     11 S3           4.0250     3.4360     6.8800 ss         1 C0T      -0.229100
     12 C4           1.3810     0.0420     2.4060 cf         1 C0T      -0.138200
     13 O4          -0.6620    -0.0460     3.6670 oh         1 C0T      -0.579800
     14 C5          -0.0370    -0.4770     2.4660 c3         1 C0T       0.384100
     15 O5           4.1700     0.8230     2.0670 os         1 C0T      -0.375600
     16 C6          -0.8230    -0.0160     1.2500 c3         1 C0T      -0.143400
     17 O6          10.5820     0.6870     3.0880 oh         1 C0T      -0.459300
     18 C7           1.9380    -1.0040    -2.0930 c          1 C0T       0.672100
     19 O7           6.3450    -0.0230     2.0200 os         1 C0T      -0.410600
     20 C8           2.4410    -2.1670    -4.1160 c3         1 C0T       0.287700
     21 O8           5.2320     3.4510     2.3620 oh         1 C0T      -0.585800
     22 C9           0.0620    -1.9610     2.4610 c1         1 C0T      -0.209100
     23 O9           7.9500     3.5950     3.2450 oh         1 C0T      -0.582800
     24 C10          0.7120    -2.9720     2.5230 cg         1 C0T      -0.105300
     25 C11          1.6750    -3.9150     3.0170 ce         1 C0T       0.040300
     26 C12          2.9960    -3.7270     2.8410 cf         1 C0T       0.043300
     27 C13          3.5090    -2.5920     2.1400 ch         1 C0T      -0.123300
     28 C14          3.8540    -1.5280     1.7270 c1         1 C0T      -0.158100
     29 C15          3.5900    -0.1560     1.2020 c3         1 C0T       0.355400
     30 C16          1.9640     0.5370     3.5020 c2         1 C0T      -0.053200
     31 C17          2.8050     1.7840     3.4100 c3         1 C0T       0.088900
     32 C18          3.4060     4.9240     7.7120 c3         1 C0T       0.103000
     33 C19          5.5340     1.1270     1.7690 c3         1 C0T       0.381900
     34 C20          6.0040     2.2840     2.6530 c3         1 C0T       0.132100
     35 C21          7.4830     2.5650     2.3710 c3         1 C0T       0.147100
     36 C22          8.2890     1.2850     2.6120 c3         1 C0T       0.065500
     37 C23          7.7320     0.1660     1.7280 c3         1 C0T       0.198100
     38 C24          8.4920    -1.1320     2.0070 c3         1 C0T       0.003900
     39 HN1          2.6880     0.7830    -1.4560 hn         1 C0T       0.171500
     40 HO4         -1.4830    -0.4980     3.7740 ho         1 C0T       0.409000
     41 H6          -1.1950     0.9840     1.4350 hc         1 C0T       0.057200
     42 H6A         -1.6620    -0.6850     1.1050 hc         1 C0T       0.057200
     43 H8           1.4120    -2.1430    -4.4520 h1         1 C0T       0.000700
     44 H8A          2.6300    -3.0990    -3.5970 h1         1 C0T       0.000700
     45 H8B          3.1020    -2.0890    -4.9710 h1         1 C0T       0.000700
     46 HO8          5.5380     4.1700     2.8900 ho         1 C0T       0.408000
     47 HO9          8.1690     4.3610     2.7390 ho         1 C0T       0.397000
     48 H11          1.3310    -4.7970     3.5430 ha         1 C0T       0.110000
     49 H12          3.6890    -4.4580     3.2390 ha         1 C0T       0.110000
     50 H15          3.9920    -0.0600     0.2000 h1         1 C0T       0.024700
     51 H16          1.3680     0.5120     4.4060 ha         1 C0T       0.130000
     52 H17          2.8780     2.0950     2.3750 h1         1 C0T       0.097200
     53 H17A         3.7960     1.5810     3.7980 h1         1 C0T       0.097200
     54 H18          2.9460     5.5800     6.9830 h1         1 C0T       0.042367
     55 H18A         4.2290     5.4380     8.1920 h1         1 C0T       0.042367
     56 H18B         2.6720     4.6420     8.4580 h1         1 C0T       0.042367
     57 H19          5.6270     1.4110     0.7270 h2         1 C0T       0.001700
     58 H20          5.8810     2.0140     3.6950 h1         1 C0T       0.044700
     59 H21          7.6010     2.8770     1.3400 h1         1 C0T       0.021700
     60 H22          8.2060     0.9970     3.6530 h1         1 C0T       0.060700
     61 H23          7.8460     0.4400     0.6870 h1         1 C0T       0.012700
     62 H24          7.9300    -1.9710     1.6160 hc         1 C0T       0.019033
     63 H24A         9.4620    -1.0920     1.5260 hc         1 C0T       0.019033
     64 H24B         8.6240    -1.2510     3.0750 hc         1 C0T       0.019033
     65 H27          9.9380     2.4850     2.4020 hn         1 C0T       0.244800
     66 H28         11.4580     1.0330     3.0580 ho         1 C0T       0.396000
@<TRIPOS>BOND
     1     1     3 2   
     2     1     5 1   
     3     1    16 1   
     4     2     5 1   
     5     2    18 1   
     6     2    39 1   
     7     4     8 1   
     8     4    31 1   
     9     5     9 2   
    10     6    17 1   
    11     6    36 1   
    12     6    65 1   
    13     7    18 2   
    14     8    11 1   
    15     9    12 1   
    16     9    29 1   
    17    10    18 1   
    18    10    20 1   
    19    11    32 1   
    20    12    14 1   
    21    12    30 2   
    22    13    14 1   
    23    13    40 1   
    24    14    16 1   
    25    14    22 1   
    26    15    29 1   
    27    15    33 1   
    28    16    41 1   
    29    16    42 1   
    30    17    66 1   
    31    19    33 1   
    32    19    37 1   
    33    20    43 1   
    34    20    44 1   
    35    20    45 1   
    36    21    34 1   
    37    21    46 1   
    38    22    24 3   
    39    23    35 1   
    40    23    47 1   
    41    24    25 1   
    42    25    26 2   
    43    25    48 1   
    44    26    27 1   
    45    26    49 1   
    46    27    28 3   
    47    28    29 1   
    48    29    50 1   
    49    30    31 1   
    50    30    51 1   
    51    31    52 1   
    52    31    53 1   
    53    32    54 1   
    54    32    55 1   
    55    32    56 1   
    56    33    34 1   
    57    33    57 1   
    58    34    35 1   
    59    34    58 1   
    60    35    36 1   
    61    35    59 1   
    62    36    37 1   
    63    36    60 1   
    64    37    38 1   
    65    37    61 1   
    66    38    62 1   
    67    38    63 1   
    68    38    64 1   
@<TRIPOS>SUBSTRUCTURE
     1 C0T         1 TEMP              0 ****  ****    0 ROOT
