@<TRIPOS>MOLECULE
molecule
   27    28     1     0     0
SMALL
bcc


@<TRIPOS>ATOM
      1 C10          0.0000     0.0000     0.0000 ca         1 C0V      -0.082000
      2 C13         -0.7100    -0.0180     3.6130 ca         1 C0V      -0.122000
      3 C15          1.3720    -0.0430     4.8020 ca         1 C0V      -0.145000
      4 C17          1.4070    -0.0120     2.4090 ca         1 C0V      -0.051000
      5 C02          1.3270     0.0020    -5.0040 c          1 C0V       0.848800
      6 C04          2.0730     0.0020    -3.7250 ce         1 C0V       0.143900
      7 C06          1.4020     0.0010    -2.5490 cf         1 C0V      -0.359200
      8 C09          1.4060     0.0000     0.0000 ca         1 C0V      -0.141600
      9 C11         -0.6960     0.0000     1.1660 ca         1 C0V      -0.146000
     10 C12         -0.0110    -0.0060     2.3940 ca         1 C0V      -0.025000
     11 C14         -0.0200    -0.0360     4.7870 ca         1 C0V      -0.133000
     12 C16          2.0850    -0.0310     3.6420 ca         1 C0V      -0.105000
     13 C18          2.1100     0.0000     1.1950 ca         1 C0V      -0.075000
     14 O01          0.1130     0.0030    -4.9980 o          1 C0V      -0.817300
     15 O03          1.9960     0.0020    -6.1730 o          1 C0V      -0.817300
     16 O05          3.4260     0.0010    -3.7290 oh         1 C0V      -0.504100
     17 O08          3.3570    -0.0000    -1.2870 o          1 C0V      -0.551100
     18 H1          -0.5350     0.0000    -0.9420 ha         1 C0V       0.155000
     19 H2          -1.7930    -0.0130     3.6190 ha         1 C0V       0.126000
     20 H3           1.8960    -0.0570     5.7500 ha         1 C0V       0.118000
     21 H4           0.3180     0.0000    -2.5440 ha         1 C0V       0.156000
     22 H6          -1.7790     0.0000     1.1500 ha         1 C0V       0.127000
     23 H7          -0.5640    -0.0460     5.7240 ha         1 C0V       0.117000
     24 H8           3.1680    -0.0370     3.6680 ha         1 C0V       0.130000
     25 H9           3.1930    -0.0000     1.1910 ha         1 C0V       0.153000
     26 H5           3.7390     0.7490    -4.2100 ho         1 C0V       0.431000
     27 C07          2.1400     0.0000    -1.2820 c          1 C0V       0.571900
@<TRIPOS>BOND
     1    12     3 ar
     2    12     4 ar
     3     3    11 ar
     4    17    27 2
     5    13     4 ar
     6    13     8 ar
     7     4    10 ar
     8    11     2 ar
     9    16     6 1
    10    27     8 1
    11    27     7 1
    12     8     1 ar
    13    10     2 ar
    14    10     9 ar
    15     6     7 2
    16     6     5 1
    17     1     9 ar
    18    14     5 1
    19     5    15 1
    20     1    18 1
    21     2    19 1
    22     3    20 1
    23     7    21 1
    24     9    22 1
    25    11    23 1
    26    12    24 1
    27    13    25 1
    28    16    26 1
@<TRIPOS>SUBSTRUCTURE
     1 C0V         1 TEMP              0 ****  ****    0 ROOT
