@<TRIPOS>MOLECULE
molecule
   22    23     1     0     0
SMALL
bcc


@<TRIPOS>ATOM
      1 C4           0.0000     0.0000     0.0000 cc         1 C0W      -0.056400
      2 C5           0.9780     0.0000     2.3410 ca         1 C0W      -0.011100
      3 C6           1.3740     0.0010     3.6830 ca         1 C0W      -0.106000
      4 C7           2.7080     0.0020     4.0140 ca         1 C0W      -0.135000
      5 C8           3.6730     0.0020     3.0170 ca         1 C0W      -0.148000
      6 C9           3.3040     0.0010     1.6950 ca         1 C0W      -0.080000
      7 C10          1.9420     0.0000     1.3350 ca         1 C0W      -0.053800
      8 C            2.4420     0.6400    -3.5680 c          1 C0W       0.872800
      9 O            2.0730     1.4140    -4.6110 o          1 C0W      -0.826800
     10 C1           1.7640     0.7770    -2.2810 ce         1 C0W       0.041400
     11 C3           1.3410     0.0000     0.0000 cd         1 C0W      -0.027200
     12 O1           3.3400    -0.1700    -3.7000 o          1 C0W      -0.826800
     13 S            0.4640     1.9510    -2.0890 sh         1 C0W      -0.417400
     14 S1          -0.6330     0.0000     1.6340 ss         1 C0W      -0.168500
     15 H1          -0.6120    -0.0010    -0.8940 h4         1 C0W       0.192000
     16 H2           0.6250     0.0010     4.4660 ha         1 C0W       0.121000
     17 H3           3.0070     0.0020     5.0550 ha         1 C0W       0.118000
     18 H4           4.7230     0.0020     3.2830 ha         1 C0W       0.121000
     19 H5           4.0650     0.0010     0.9240 ha         1 C0W       0.145000
     20 H7           2.9360    -0.7220    -1.3520 ha         1 C0W       0.165000
     21 H8           0.8700     3.1360    -2.5280 hs         1 C0W       0.214800
     22 C2           2.1360    -0.0010    -1.2300 cf         1 C0W      -0.133000
@<TRIPOS>BOND
     1    13    10 1
     2    12     8 1
     3     1    14 1
     4     1    11 2
     5    14     2 1
     6    10     8 1
     7    10    22 2
     8     8     9 1
     9    11    22 1
    10    11     7 1
    11     2     7 ar
    12     2     3 ar
    13     7     6 ar
    14     3     4 ar
    15     6     5 ar
    16     4     5 ar
    17     1    15 1
    18     3    16 1
    19     4    17 1
    20     5    18 1
    21     6    19 1
    22    22    20 1
    23    13    21 1
@<TRIPOS>SUBSTRUCTURE
     1 C0W         1 TEMP              0 ****  ****    0 ROOT
