@<TRIPOS>MOLECULE
molecule
   40    41     1     0     0
SMALL
bcc


@<TRIPOS>ATOM
      1 C1           0.0000     0.0000     0.0000 c3         1 C0Y      -0.083433
      2 C2           1.5300     0.0000     0.0000 c3         1 C0Y      -0.010700
      3 C3           2.0400     0.0000     1.4420 c3         1 C0Y      -0.083433
      4 C4           2.0400    -1.2480    -0.7220 c3         1 C0Y      -0.083433
      5 C5           2.0320     1.2310    -0.7100 ca         1 C0Y      -0.105300
      6 C6           1.1360     2.1380    -1.2330 ca         1 C0Y      -0.046000
      7 C7           1.6030     3.2790    -1.8900 ca         1 C0Y      -0.178600
      8 C8           2.9770     3.4960    -2.0150 ca         1 C0Y      -0.076000
      9 C9           3.8660     2.5860    -1.4900 ca         1 C0Y      -0.231000
     10 C10          3.3990     1.4540    -0.8310 ca         1 C0Y       0.158100
     11 O11          4.2790     0.5610    -0.3100 oh         1 C0Y      -0.490100
     12 C12          0.6450     4.2520    -2.4520 c          1 C0Y       0.683700
     13 O13         -0.2780     3.8670    -3.1420 o          1 C0Y      -0.603100
     14 N14          0.7960     5.5680    -2.2000 n          1 C0Y      -0.491800
     15 C15         -0.1910     6.5490    -2.6790 c3         1 C0Y       0.063500
     16 C16         -0.6030     7.4360    -1.4990 c3         1 C0Y       0.120400
     17 O17          0.5710     7.9670    -0.8790 os         1 C0Y      -0.420600
     18 C18          1.4360     6.9770    -0.3170 c3         1 C0Y       0.120400
     19 C19          1.9490     6.0640    -1.4320 c3         1 C0Y       0.063500
     20 H11C        -0.3610    -0.0000    -1.0210 hc         1 C0Y       0.039367
     21 H12C        -0.3610    -0.8840     0.5110 hc         1 C0Y       0.039367
     22 H13C        -0.3610     0.8840     0.5110 hc         1 C0Y       0.039367
     23 H31C         1.9220     0.9890     1.8670 hc         1 C0Y       0.039367
     24 H32C         1.4720    -0.7140     2.0260 hc         1 C0Y       0.039367
     25 H33C         3.0880    -0.2750     1.4540 hc         1 C0Y       0.039367
     26 H41C         1.9000    -1.1300    -1.7900 hc         1 C0Y       0.039367
     27 H42C         3.0930    -1.3830    -0.5080 hc         1 C0Y       0.039367
     28 H43C         1.4880    -2.1150    -0.3800 hc         1 C0Y       0.039367
     29 H6           0.0710     1.9660    -1.1340 ha         1 C0Y       0.160000
     30 H8           3.3430     4.3780    -2.5260 ha         1 C0Y       0.138000
     31 H9           4.9320     2.7550    -1.5840 ha         1 C0Y       0.133000
     32 H11          5.1590     0.8610    -0.4660 ho         1 C0Y       0.420000
     33 H151         0.2520     7.1600    -3.4560 h1         1 C0Y       0.066950
     34 H152        -1.0600     6.0310    -3.0660 h1         1 C0Y       0.066950
     35 H191         2.6060     6.6250    -2.0860 h1         1 C0Y       0.066950
     36 H192         2.4840     5.2280    -0.9990 h1         1 C0Y       0.066950
     37 H161        -1.2210     8.2500    -1.8590 h1         1 C0Y       0.055200
     38 H162        -1.1560     6.8450    -0.7790 h1         1 C0Y       0.055200
     39 H181         2.2750     7.4630     0.1660 h1         1 C0Y       0.055200
     40 H182         0.8870     6.3870     0.4070 h1         1 C0Y       0.055200
@<TRIPOS>BOND
     1     1     2 1
     2     2     3 1
     3     2     4 1
     4     2     5 1
     5     5     6 ar
     6     5    10 ar
     7     6     7 ar
     8     7     8 ar
     9     7    12 1
    10     8     9 ar
    11     9    10 ar
    12    10    11 1
    13    12    13 2
    14    12    14 1
    15    14    15 1
    16    14    19 1
    17    15    16 1
    18    16    17 1
    19    17    18 1
    20    18    19 1
    21     1    20 1
    22     1    21 1
    23     1    22 1
    24     3    23 1
    25     3    24 1
    26     3    25 1
    27     4    26 1
    28     4    27 1
    29     4    28 1
    30     6    29 1
    31     8    30 1
    32     9    31 1
    33    11    32 1
    34    15    33 1
    35    15    34 1
    36    19    35 1
    37    19    36 1
    38    16    37 1
    39    16    38 1
    40    18    39 1
    41    18    40 1
@<TRIPOS>SUBSTRUCTURE
     1 C0Y         1 TEMP              0 ****  ****    0 ROOT
