@<TRIPOS>MOLECULE
C0Y
   40    41     1     0     0
SMALL
bcc


@<TRIPOS>ATOM
      1 C1           0.0000     0.0000     0.0000 c3         1 C0Y      -0.001767
      2 C2           1.5300     0.0000     0.0000 c3         1 C0Y       0.002300
      3 C3           2.0400     0.0000     1.4420 c3         1 C0Y      -0.001767
      4 C4           2.0400    -1.2480    -0.7220 c3         1 C0Y      -0.001767
      5 C5           2.0320     1.2310    -0.7100 ca         1 C0Y      -0.121300
      6 C6           1.1360     2.1380    -1.2330 ca         1 C0Y      -0.019000
      7 C7           1.6030     3.2790    -1.8900 ca         1 C0Y      -0.189600
      8 C8           2.9770     3.4960    -2.0150 ca         1 C0Y      -0.052000
      9 C9           3.8660     2.5860    -1.4900 ca         1 C0Y      -0.212000
     10 C10          3.3990     1.4540    -0.8310 ca         1 C0Y       0.177100
     11 O11          4.2790     0.5610    -0.3100 oh         1 C0Y      -0.467100
     12 C12          0.6450     4.2520    -2.4520 c          1 C0Y       0.620700
     13 O13         -0.2780     3.8670    -3.1420 o          1 C0Y      -0.644100
     14 N14          0.7960     5.5680    -2.2000 n          1 C0Y      -0.150800
     15 C15         -0.1910     6.5490    -2.6790 c3         1 C0Y      -0.004000
     16 C16         -0.6030     7.4360    -1.4990 c3         1 C0Y       0.198400
     17 O17          0.5710     7.9670    -0.8790 os         1 C0Y      -0.406600
     18 C18          1.4360     6.9770    -0.3170 c3         1 C0Y       0.198400
     19 C19          1.9490     6.0640    -1.4320 c3         1 C0Y      -0.004000
     20 H11C        -0.3610    -0.0000    -1.0210 hc         1 C0Y       0.010144
     21 H12C        -0.3610    -0.8840     0.5110 hc         1 C0Y       0.010144
     22 H13C        -0.3610     0.8840     0.5110 hc         1 C0Y       0.010144
     23 H31C         1.9220     0.9890     1.8670 hc         1 C0Y       0.010144
     24 H32C         1.4720    -0.7140     2.0260 hc         1 C0Y       0.010144
     25 H33C         3.0880    -0.2750     1.4540 hc         1 C0Y       0.010144
     26 H41C         1.9000    -1.1300    -1.7900 hc         1 C0Y       0.010144
     27 H42C         3.0930    -1.3830    -0.5080 hc         1 C0Y       0.010144
     28 H43C         1.4880    -2.1150    -0.3800 hc         1 C0Y       0.010144
     29 H6           0.0710     1.9660    -1.1340 ha         1 C0Y       0.135000
     30 H8           3.3430     4.3780    -2.5260 ha         1 C0Y       0.112000
     31 H9           4.9320     2.7550    -1.5840 ha         1 C0Y       0.111000
     32 H11          5.1590     0.8610    -0.4660 ho         1 C0Y       0.400000
     33 H151         0.2520     7.1600    -3.4560 h1         1 C0Y       0.041950
     34 H152        -1.0600     6.0310    -3.0660 h1         1 C0Y       0.041950
     35 H191         2.6060     6.6250    -2.0860 h1         1 C0Y       0.041950
     36 H192         2.4840     5.2280    -0.9990 h1         1 C0Y       0.041950
     37 H161        -1.2210     8.2500    -1.8590 h1         1 C0Y       0.014950
     38 H162        -1.1560     6.8450    -0.7790 h1         1 C0Y       0.014950
     39 H181         2.2750     7.4630     0.1660 h1         1 C0Y       0.014950
     40 H182         0.8870     6.3870     0.4070 h1         1 C0Y       0.014950
@<TRIPOS>BOND
     1     1     2 1   
     2     1    20 1   
     3     1    21 1   
     4     1    22 1   
     5     2     3 1   
     6     2     4 1   
     7     2     5 1   
     8     3    23 1   
     9     3    24 1   
    10     3    25 1   
    11     4    26 1   
    12     4    27 1   
    13     4    28 1   
    14     5     6 ar  
    15     5    10 ar  
    16     6     7 ar  
    17     6    29 1   
    18     7     8 ar  
    19     7    12 1   
    20     8     9 ar  
    21     8    30 1   
    22     9    10 ar  
    23     9    31 1   
    24    10    11 1   
    25    11    32 1   
    26    12    13 2   
    27    12    14 1   
    28    14    15 1   
    29    14    19 1   
    30    15    16 1   
    31    15    33 1   
    32    15    34 1   
    33    16    17 1   
    34    16    37 1   
    35    16    38 1   
    36    17    18 1   
    37    18    19 1   
    38    18    39 1   
    39    18    40 1   
    40    19    35 1   
    41    19    36 1   
@<TRIPOS>SUBSTRUCTURE
     1 C0Y         1 TEMP              0 ****  ****    0 ROOT
