@<TRIPOS>MOLECULE
C0Z
   59    63     1     0     0
SMALL
bcc


@<TRIPOS>ATOM
      1 O3           0.0000     0.0000     0.0000 o          1 C0Z      -0.652500
      2 C25          1.2130     0.0000     0.0000 c          1 C0Z       0.589500
      3 N2           1.9840     0.0000     1.1020 n          1 C0Z       0.021000
      4 C8           1.4880     0.0090     2.4100 ca         1 C0Z      -0.065400
      5 C7           0.1250     0.1320     2.6390 ca         1 C0Z      -0.136000
      6 C9           2.3600    -0.1090     3.4850 ca         1 C0Z      -0.160000
      7 C10          1.8670    -0.1000     4.7740 ca         1 C0Z      -0.038000
      8 C11          0.5070     0.0280     5.0010 ca         1 C0Z      -0.122300
      9 C6          -0.3650     0.1410     3.9330 ca         1 C0Z      -0.070300
     10 C5          -1.7850     0.2620     4.4410 c3         1 C0Z       0.044900
     11 C4          -1.6500     0.6490     5.9300 c3         1 C0Z      -0.076400
     12 C3          -0.2700     0.0650     6.3010 c3         1 C0Z       0.195800
     13 N1           0.4090     0.9270     7.2760 n3         1 C0Z      -0.539600
     14 C2           0.4900     2.3100     6.7890 c3         1 C0Z       0.174600
     15 C1          -0.2580     0.8680     8.5840 c3         1 C0Z       0.174600
     16 C14          2.0790    -0.0080    -1.2400 c3         1 C0Z       0.111500
     17 C13          3.4770     0.4130    -0.7290 c3         1 C0Z      -0.038400
     18 C12          3.4090    -0.0120     0.7550 c3         1 C0Z       0.029000
     19 N3           1.5790     0.9580    -2.2200 n7         1 C0Z      -0.555100
     20 S1           0.5870     0.4560    -3.4480 sy         1 C0Z       1.040200
     21 O1           0.2530     1.6170    -4.1960 o          1 C0Z      -0.588800
     22 O2           1.2070    -0.6870    -4.0230 o          1 C0Z      -0.588800
     23 C15         -0.9100    -0.1080    -2.7100 ca         1 C0Z      -0.134500
     24 C24         -1.9330     0.7680    -2.5120 ca         1 C0Z       0.049000
     25 C23         -3.1280     0.3210    -1.9240 ca         1 C0Z      -0.071000
     26 C18         -3.2500    -1.0390    -1.5470 ca         1 C0Z       0.018000
     27 C17         -2.1740    -1.9150    -1.7670 ca         1 C0Z      -0.105000
     28 C16         -1.0330    -1.4470    -2.3440 ca         1 C0Z      -0.005000
     29 C22         -4.2040     1.1980    -1.7020 ca         1 C0Z      -0.055000
     30 C21         -5.3470     0.7300    -1.1310 ca         1 C0Z      -0.115000
     31 C20         -5.4680    -0.6090    -0.7590 ca         1 C0Z      -0.014600
     32 Cl1         -6.9430    -1.1650    -0.0310 cl         1 C0Z      -0.030400
     33 C19         -4.4460    -1.4860    -0.9590 ca         1 C0Z      -0.102000
     34 H14          2.1180    -1.0030    -1.6660 h1         1 C0Z       0.072700
     35 H121         3.8150    -1.0090     0.8770 h1         1 C0Z       0.028200
     36 H122         3.9490     0.6970     1.3710 h1         1 C0Z       0.028200
     37 H7          -0.5560     0.2280     1.8020 ha         1 C0Z       0.167000
     38 H9           3.4300    -0.1390     3.3150 ha         1 C0Z       0.110000
     39 H10          2.5470    -0.1930     5.6130 ha         1 C0Z       0.113000
     40 H3          -0.3840    -0.9380     6.6940 h1         1 C0Z       0.042700
     41 H51C        -2.3120     1.0380     3.8990 hc         1 C0Z       0.023200
     42 H52C        -2.2990    -0.6870     4.3460 hc         1 C0Z       0.023200
     43 H41C        -1.6370     1.7270     6.0340 hc         1 C0Z       0.031700
     44 H42C        -2.4260     0.1660     6.5110 hc         1 C0Z       0.031700
     45 H21C         1.3930     2.7740     7.1680 h1         1 C0Z       0.004700
     46 H22C         0.5120     2.3100     5.7060 h1         1 C0Z       0.004700
     47 H23C        -0.3740     2.8650     7.1330 h1         1 C0Z       0.004700
     48 H11C        -0.3830    -0.1660     8.8800 h1         1 C0Z       0.004700
     49 H12C         0.3470     1.3840     9.3210 h1         1 C0Z       0.004700
     50 H13C        -1.2280     1.3440     8.5170 h1         1 C0Z       0.004700
     51 H131         3.6130     1.4840    -0.8180 hc         1 C0Z       0.036200
     52 H132         4.2570    -0.1300    -1.2500 hc         1 C0Z       0.036200
     53 HA           1.8540     1.9190    -2.1620 hn         1 C0Z       0.350800
     54 H24         -1.8660     1.7760    -2.9050 ha         1 C0Z       0.123000
     55 H16         -0.2100    -2.1270    -2.5260 ha         1 C0Z       0.116000
     56 H22         -4.1240     2.2410    -1.9860 ha         1 C0Z       0.110000
     57 H17         -2.2550    -2.9590    -1.4880 ha         1 C0Z       0.110000
     58 H19         -4.5540    -2.5240    -0.6650 ha         1 C0Z       0.120000
     59 H21         -6.1750     1.4070    -0.9620 ha         1 C0Z       0.114000
@<TRIPOS>BOND
     1     1     2 2   
     2     2     3 1   
     3     2    16 1   
     4     3     4 1   
     5     3    18 1   
     6     4     5 ar  
     7     4     6 ar  
     8     5     9 ar  
     9     5    37 1   
    10     6     7 ar  
    11     6    38 1   
    12     7     8 ar  
    13     7    39 1   
    14     8     9 ar  
    15     8    12 1   
    16     9    10 1   
    17    10    11 1   
    18    10    41 1   
    19    10    42 1   
    20    11    12 1   
    21    11    43 1   
    22    11    44 1   
    23    12    13 1   
    24    12    40 1   
    25    13    14 1   
    26    13    15 1   
    27    14    45 1   
    28    14    46 1   
    29    14    47 1   
    30    15    48 1   
    31    15    49 1   
    32    15    50 1   
    33    16    17 1   
    34    16    19 1   
    35    16    34 1   
    36    17    18 1   
    37    17    51 1   
    38    17    52 1   
    39    18    35 1   
    40    18    36 1   
    41    19    20 1   
    42    19    53 1   
    43    20    21 2   
    44    20    22 2   
    45    20    23 1   
    46    23    24 ar  
    47    23    28 ar  
    48    24    25 ar  
    49    24    54 1   
    50    25    26 ar  
    51    25    29 ar  
    52    26    27 ar  
    53    26    33 ar  
    54    27    28 ar  
    55    27    57 1   
    56    28    55 1   
    57    29    30 ar  
    58    29    56 1   
    59    30    31 ar  
    60    30    59 1   
    61    31    32 1   
    62    31    33 ar  
    63    33    58 1   
@<TRIPOS>SUBSTRUCTURE
     1 C0Z         1 TEMP              0 ****  ****    0 ROOT
