@<TRIPOS>MOLECULE
molecule
   75    74     1     0     0
SMALL
bcc


@<TRIPOS>ATOM
      1 C1           0.0000     0.0000     0.0000 c3         1 C10      -0.092100
      2 C2           1.5300     0.0000     0.0000 c3         1 C10      -0.084400
      3 C3           2.0420     0.0000     1.4420 c3         1 C10      -0.081400
      4 C4           3.5700     0.0000     1.4410 c3         1 C10      -0.082400
      5 C5           4.0820    -0.0000     2.8820 c3         1 C10      -0.081400
      6 C6           5.6120     0.0010     2.8810 c3         1 C10      -0.082400
      7 C7           6.1230    -0.0010     4.3230 c3         1 C10      -0.080400
      8 C8           7.6530     0.0000     4.3220 c3         1 C10      -0.082400
      9 C9           8.1640    -0.0010     5.7640 c3         1 C10      -0.082400
     10 C10          9.6940     0.0000     5.7630 c3         1 C10       0.124400
     11 O11         10.1710    -0.0010     7.1100 os         1 C10      -0.397600
     12 C12         11.5980     0.0000     7.0420 c3         1 C10       0.128400
     13 C13         12.1770     0.0000     8.4590 c3         1 C10       0.125400
     14 O14         11.7330    -1.1670     9.1530 os         1 C10      -0.382600
     15 C15         12.3030    -1.1090    10.4620 c3         1 C10       0.126400
     16 C16         11.8650    -2.3370    11.2630 c3         1 C10       0.126400
     17 O17         12.3110    -3.5220    10.6000 os         1 C10      -0.384600
     18 C18         11.8740    -4.6270    11.3930 c3         1 C10       0.126400
     19 C19         12.3220    -5.9340    10.7360 c3         1 C10       0.126400
     20 O20         13.7470    -5.9530    10.6370 os         1 C10      -0.384600
     21 C21         14.1020    -7.1930    10.0190 c3         1 C10       0.126400
     22 C22         15.6230    -7.2770     9.8820 c3         1 C10       0.126400
     23 O23         16.2220    -7.2020    11.1780 os         1 C10      -0.384600
     24 C24         17.6360    -7.2860    10.9840 c3         1 C10       0.126400
     25 C25         18.3420    -7.2130    12.3390 c3         1 C10       0.125400
     26 O26         17.9080    -8.2970    13.1630 os         1 C10      -0.379600
     27 C27         18.6000    -8.1730    14.4060 c3         1 C10       0.125400
     28 C28         18.1780    -9.3100    15.3390 c3         1 C10       0.142400
     29 O29         18.5040   -10.5650    14.7370 oh         1 C10      -0.596800
     30 H1C1        -0.3610    -0.8820     0.5150 hc         1 C10       0.032367
     31 H1C2        -0.3610     0.8870     0.5070 hc         1 C10       0.032367
     32 H1C3        -0.3620    -0.0050    -1.0210 hc         1 C10       0.032367
     33 H2C1         1.8900     0.8840    -0.5110 hc         1 C10       0.039700
     34 H2C2         1.8900    -0.8840    -0.5110 hc         1 C10       0.039700
     35 H3C1         1.6810    -0.8850     1.9530 hc         1 C10       0.040700
     36 H3C2         1.6810     0.8840     1.9530 hc         1 C10       0.040700
     37 H4C1         3.9310    -0.8840     0.9290 hc         1 C10       0.040700
     38 H4C2         3.9310     0.8850     0.9310 hc         1 C10       0.040700
     39 H5C1         3.7210     0.8830     3.3940 hc         1 C10       0.041700
     40 H5C2         3.7220    -0.8860     3.3920 hc         1 C10       0.041700
     41 H6C1         5.9720     0.8870     2.3720 hc         1 C10       0.040700
     42 H6C2         5.9740    -0.8830     2.3690 hc         1 C10       0.040700
     43 H7C1         5.7610     0.8820     4.8350 hc         1 C10       0.043200
     44 H7C2         5.7630    -0.8870     4.8320 hc         1 C10       0.043200
     45 H8C1         8.0130     0.8860     3.8120 hc         1 C10       0.040700
     46 H8C2         8.0140    -0.8830     3.8100 hc         1 C10       0.040700
     47 H9C1         7.8020     0.8830     6.2750 hc         1 C10       0.053700
     48 H9C2         7.8030    -0.8860     6.2740 hc         1 C10       0.053700
     49 H101        10.0560    -0.8830     5.2520 h1         1 C10       0.023700
     50 H102        10.0550     0.8860     5.2530 h1         1 C10       0.023700
     51 H121        11.9350    -0.8840     6.5140 h1         1 C10       0.033200
     52 H122        11.9340     0.8850     6.5150 h1         1 C10       0.033200
     53 H131        13.2590     0.0000     8.4070 h1         1 C10       0.032200
     54 H132        11.8400     0.8840     8.9870 h1         1 C10       0.032200
     55 H151        13.3840    -1.0950    10.3850 h1         1 C10       0.032700
     56 H152        11.9640    -0.2110    10.9640 h1         1 C10       0.032700
     57 H161        10.7850    -2.3520    11.3400 h1         1 C10       0.033200
     58 H162        12.2980    -2.2940    12.2550 h1         1 C10       0.033200
     59 H181        10.7940    -4.6120    11.4690 h1         1 C10       0.033200
     60 H182        12.3070    -4.5540    12.3840 h1         1 C10       0.033200
     61 H191        11.8900    -6.0070     9.7450 h1         1 C10       0.033200
     62 H192        11.9900    -6.7720    11.3370 h1         1 C10       0.033200
     63 H211        13.7480    -8.0150    10.6300 h1         1 C10       0.033700
     64 H212        13.6470    -7.2500     9.0380 h1         1 C10       0.033700
     65 H221        15.8920    -8.2160     9.4140 h1         1 C10       0.033200
     66 H222        15.9770    -6.4540     9.2730 h1         1 C10       0.033200
     67 H241        17.8790    -8.2250    10.5010 h1         1 C10       0.033200
     68 H242        17.9640    -6.4640    10.3610 h1         1 C10       0.033200
     69 H251        19.4130    -7.2770    12.1920 h1         1 C10       0.032200
     70 H252        18.0990    -6.2740    12.8220 h1         1 C10       0.032200
     71 H271        18.3550    -7.2220    14.8620 h1         1 C10       0.030200
     72 H272        19.6680    -8.2250    14.2320 h1         1 C10       0.030200
     73 H281        17.1100    -9.2580    15.5120 h1         1 C10       0.030200
     74 H282        18.7020    -9.2160    16.2830 h1         1 C10       0.030200
     75 H29         18.5750   -11.2250    15.4070 ho         1 C10       0.397000
@<TRIPOS>BOND
     1     1     2 1
     2     1    30 1
     3     1    31 1
     4     1    32 1
     5     2     3 1
     6     2    33 1
     7     2    34 1
     8     3     4 1
     9     3    35 1
    10     3    36 1
    11     4     5 1
    12     4    37 1
    13     4    38 1
    14     5     6 1
    15     5    39 1
    16     5    40 1
    17     6     7 1
    18     6    41 1
    19     6    42 1
    20     7     8 1
    21     7    43 1
    22     7    44 1
    23     8     9 1
    24     8    45 1
    25     8    46 1
    26     9    10 1
    27     9    47 1
    28     9    48 1
    29    10    11 1
    30    10    49 1
    31    10    50 1
    32    11    12 1
    33    12    13 1
    34    12    51 1
    35    12    52 1
    36    13    14 1
    37    13    53 1
    38    13    54 1
    39    14    15 1
    40    15    16 1
    41    15    55 1
    42    15    56 1
    43    16    17 1
    44    16    57 1
    45    16    58 1
    46    17    18 1
    47    18    19 1
    48    18    59 1
    49    18    60 1
    50    19    20 1
    51    19    61 1
    52    19    62 1
    53    20    21 1
    54    21    22 1
    55    21    63 1
    56    21    64 1
    57    22    23 1
    58    22    65 1
    59    22    66 1
    60    23    24 1
    61    24    25 1
    62    24    67 1
    63    24    68 1
    64    25    26 1
    65    25    69 1
    66    25    70 1
    67    26    27 1
    68    27    28 1
    69    27    71 1
    70    27    72 1
    71    28    29 1
    72    28    73 1
    73    28    74 1
    74    29    75 1
@<TRIPOS>SUBSTRUCTURE
     1 C10         1 TEMP              0 ****  ****    0 ROOT
