@<TRIPOS>MOLECULE
C10
   75    74     1     0     0
SMALL
bcc


@<TRIPOS>ATOM
      1 C1         -1.2840    2.7120    0.6280 c3        1 C10     -0.092100
      2 C2         -0.1380    1.7420    0.5040 c3        1 C10     -0.080400
      3 C3          0.9190    1.9940    1.5590 c3        1 C10     -0.079400
      4 C4          2.0680    1.0170    1.4310 c3        1 C10     -0.079400
      5 C5          3.1240    1.2700    2.4860 c3        1 C10     -0.079400
      6 C6          4.2730    0.2930    2.3570 c3        1 C10     -0.079400
      7 C7          5.3290    0.5460    3.4120 c3        1 C10     -0.078400
      8 C8          6.4780   -0.4300    3.2840 c3        1 C10     -0.078400
      9 C9          7.5300   -0.1750    4.3400 c3        1 C10     -0.083400
     10 C10         8.6750   -1.1620    4.1980 c3        1 C10      0.132400
     11 O11         9.6110   -0.8530    5.2290 os        1 C10     -0.428600
     12 C12        10.7530   -1.7060    5.1940 c3        1 C10      0.126400
     13 C13        11.5790   -1.3730    6.4320 c3        1 C10      0.127400
     14 O14        11.4830   -2.5020    7.2970 os        1 C10     -0.429600
     15 C15        12.0760   -2.2580    8.5710 c3        1 C10      0.127400
     16 C16        12.0540   -3.5860    9.3200 c3        1 C10      0.127400
     17 O17        13.3980   -4.0620    9.3420 os        1 C10     -0.429600
     18 C18        13.4950   -5.3840    9.8690 c3        1 C10      0.127400
     19 C19        14.9830   -5.6910    9.9970 c3        1 C10      0.127400
     20 O20        15.2840   -5.6650   11.3900 os        1 C10     -0.429600
     21 C21        16.6830   -5.7780   11.6430 c3        1 C10      0.127400
     22 C22        16.8410   -5.9140   13.1540 c3        1 C10      0.127400
     23 O23        17.1740   -7.2770   13.4060 os        1 C10     -0.428600
     24 C24        17.1830   -7.5830   14.7990 c3        1 C10      0.127400
     25 C25        17.7120   -9.0070   14.9250 c3        1 C10      0.128400
     26 O26        19.0360   -8.9050   15.4470 os        1 C10     -0.438600
     27 C27        19.7150  -10.1580   15.4540 c3        1 C10      0.087400
     28 C28        21.0780   -9.8980   16.0870 c3        1 C10      0.131400
     29 O29        20.9600   -9.5410   17.4490 oh        1 C10     -0.600800
     30 H1C1       -0.9260    3.7640    0.5080 hc        1 C10      0.032700
     31 H1C2       -1.7720    2.6210    1.6290 hc        1 C10      0.032700
     32 H1C3       -2.0510    2.5090   -0.1580 hc        1 C10      0.032700
     33 H2C1       -0.5210    0.6920    0.6020 hc        1 C10      0.038700
     34 H2C2        0.3230    1.8310   -0.5150 hc        1 C10      0.038700
     35 H3C1        0.4600    1.9040    2.5790 hc        1 C10      0.039700
     36 H3C2        1.3040    3.0430    1.4610 hc        1 C10      0.039700
     37 H4C1        1.6830   -0.0320    1.5280 hc        1 C10      0.039700
     38 H4C2        2.5260    1.1080    0.4110 hc        1 C10      0.039700
     39 H5C1        2.6660    1.1790    3.5060 hc        1 C10      0.039700
     40 H5C2        3.5090    2.3190    2.3890 hc        1 C10      0.039700
     41 H6C1        4.7320    0.3840    1.3370 hc        1 C10      0.039700
     42 H6C2        3.8880   -0.7560    2.4540 hc        1 C10      0.039700
     43 H7C1        5.7140    1.5950    3.3160 hc        1 C10      0.041700
     44 H7C2        4.8710    0.4550    4.4330 hc        1 C10      0.041700
     45 H8C1        6.0930   -1.4800    3.3800 hc        1 C10      0.040200
     46 H8C2        6.9370   -0.3390    2.2640 hc        1 C10      0.040200
     47 H9C1        7.0830   -0.2720    5.3640 hc        1 C10      0.054700
     48 H9C2        7.9270    0.8690    4.2490 hc        1 C10      0.054700
     49 H101        9.1720   -1.0610    3.1960 h1        1 C10      0.025700
     50 H102        8.3150   -2.2180    4.3210 h1        1 C10      0.025700
     51 H121       10.4360   -2.7820    5.2040 h1        1 C10      0.041700
     52 H122       11.3410   -1.4960    4.2610 h1        1 C10      0.041700
     53 H131       12.6550   -1.2120    6.1550 h1        1 C10      0.043200
     54 H132       11.1800   -0.4570    6.9420 h1        1 C10      0.043200
     55 H151       13.1280   -1.8890    8.4460 h1        1 C10      0.043700
     56 H152       11.4680   -1.4900    9.1180 h1        1 C10      0.043700
     57 H161       11.7000   -3.4350   10.3740 h1        1 C10      0.043700
     58 H162       11.3880   -4.3260    8.8010 h1        1 C10      0.043700
     59 H181       13.0070   -6.1000    9.1570 h1        1 C10      0.043200
     60 H182       12.9880   -5.4410   10.8690 h1        1 C10      0.043200
     61 H191       15.5960   -4.9260    9.4520 h1        1 C10      0.043700
     62 H192       15.2080   -6.7130    9.5910 h1        1 C10      0.043700
     63 H211       17.1010   -6.6760   11.1160 h1        1 C10      0.043700
     64 H212       17.1990   -4.8510   11.2780 h1        1 C10      0.043700
     65 H221       15.8870   -5.6430   13.6800 h1        1 C10      0.044200
     66 H222       17.6740   -5.2580   13.5200 h1        1 C10      0.044200
     67 H241       17.8430   -6.8610   15.3500 h1        1 C10      0.043200
     68 H242       16.1360   -7.5170   15.1980 h1        1 C10      0.043200
     69 H251       17.7270   -9.5170   13.9260 h1        1 C10      0.045200
     70 H252       17.0810   -9.5980   15.6420 h1        1 C10      0.045200
     71 H271       19.8330  -10.5340   14.4050 h1        1 C10      0.039200
     72 H272       19.1310  -10.9010   16.0590 h1        1 C10      0.039200
     73 H281       21.6850  -10.8410   16.0830 h1        1 C10      0.053200
     74 H282       21.6160   -9.0910   15.5220 h1        1 C10      0.053200
     75 H29        20.3850   -8.7660   17.4870 ho        1 C10      0.412000
@<TRIPOS>BOND
     1    1    2 1   
     2    1   30 1   
     3    1   31 1   
     4    1   32 1   
     5    2    3 1   
     6    2   33 1   
     7    2   34 1   
     8    3    4 1   
     9    3   35 1   
    10    3   36 1   
    11    4    5 1   
    12    4   37 1   
    13    4   38 1   
    14    5    6 1   
    15    5   39 1   
    16    5   40 1   
    17    6    7 1   
    18    6   41 1   
    19    6   42 1   
    20    7    8 1   
    21    7   43 1   
    22    7   44 1   
    23    8    9 1   
    24    8   45 1   
    25    8   46 1   
    26    9   10 1   
    27    9   47 1   
    28    9   48 1   
    29   10   11 1   
    30   10   49 1   
    31   10   50 1   
    32   11   12 1   
    33   12   13 1   
    34   12   51 1   
    35   12   52 1   
    36   13   14 1   
    37   13   53 1   
    38   13   54 1   
    39   14   15 1   
    40   15   16 1   
    41   15   55 1   
    42   15   56 1   
    43   16   17 1   
    44   16   57 1   
    45   16   58 1   
    46   17   18 1   
    47   18   19 1   
    48   18   59 1   
    49   18   60 1   
    50   19   20 1   
    51   19   61 1   
    52   19   62 1   
    53   20   21 1   
    54   21   22 1   
    55   21   63 1   
    56   21   64 1   
    57   22   23 1   
    58   22   65 1   
    59   22   66 1   
    60   23   24 1   
    61   24   25 1   
    62   24   67 1   
    63   24   68 1   
    64   25   26 1   
    65   25   69 1   
    66   25   70 1   
    67   26   27 1   
    68   27   28 1   
    69   27   71 1   
    70   27   72 1   
    71   28   29 1   
    72   28   73 1   
    73   28   74 1   
    74   29   75 1   
@<TRIPOS>SUBSTRUCTURE
     1 C10         1 TEMP              0 ****  ****    0 ROOT
