@<TRIPOS>MOLECULE
C11
   51    50     1     0     0
SMALL
bcc


@<TRIPOS>ATOM
      1 C1          0.1510    0.2440   -0.4380 c3        1 C11     -0.411600
      2 C2          1.6510    0.3000   -0.2920 c3        1 C11     -0.074400
      3 C3          2.1010    0.1270    1.1400 c3        1 C11     -0.070400
      4 C4          3.6090    0.1990    1.2520 c3        1 C11     -0.080400
      5 C5          4.0590    0.0250    2.6870 c3        1 C11     -0.078400
      6 C6          5.5670    0.0990    2.8010 c3        1 C11     -0.079400
      7 C7          6.0180   -0.0730    4.2360 c3        1 C11     -0.078400
      8 C8          7.5250    0.0020    4.3500 c3        1 C11     -0.079400
      9 C9          7.9760   -0.1690    5.7850 c3        1 C11     -0.079400
     10 C10         9.4840   -0.0940    5.9010 c3        1 C11     -0.080400
     11 C11         9.9380   -0.2630    7.3280 c3        1 C11     -0.092100
     12 P          -0.1960    0.3660   -2.0350 p5        1 C11      1.450300
     13 O1P         0.1780   -0.7410   -2.9060 o         1 C11     -0.849300
     14 O2P        -1.7900    0.6150   -2.0910 os        1 C11     -0.604200
     15 CY1        -2.4630   -0.1010   -3.1070 c3        1 C11      0.174400
     16 CY2        -3.9430    0.2180   -3.0260 c3        1 C11     -0.083400
     17 CY3        -4.7040   -0.5230   -4.1040 c3        1 C11     -0.081400
     18 CY4        -6.1790   -0.2220   -4.0390 c3        1 C11     -0.092100
     19 H11        -0.3200    1.0470    0.1850 hc        1 C11      0.112700
     20 H12        -0.2250   -0.7180    0.0030 hc        1 C11      0.112700
     21 H21         2.0150    1.2870   -0.6870 hc        1 C11      0.055200
     22 H22         2.1000   -0.5070   -0.9340 hc        1 C11      0.055200
     23 H31         1.6360    0.9240    1.7780 hc        1 C11      0.043700
     24 H32         1.7400   -0.8610    1.5290 hc        1 C11      0.043700
     25 H41         4.0730   -0.5980    0.6130 hc        1 C11      0.042700
     26 H42         3.9700    1.1870    0.8620 hc        1 C11      0.042700
     27 H51         3.5940    0.8210    3.3260 hc        1 C11      0.040200
     28 H52         3.7010   -0.9640    3.0770 hc        1 C11      0.040200
     29 H61         6.0320   -0.6980    2.1630 hc        1 C11      0.040700
     30 H62         5.9260    1.0870    2.4100 hc        1 C11      0.040700
     31 H71         5.5520    0.7240    4.8740 hc        1 C11      0.039700
     32 H72         5.6590   -1.0610    4.6270 hc        1 C11      0.039700
     33 H81         7.9910   -0.7950    3.7120 hc        1 C11      0.039700
     34 H82         7.8840    0.9900    3.9580 hc        1 C11      0.039700
     35 H91         7.6180   -1.1570    6.1770 hc        1 C11      0.039700
     36 H92         7.5110    0.6280    6.4230 hc        1 C11      0.039700
     37 H101        9.9480   -0.8910    5.2610 hc        1 C11      0.038700
     38 H102        9.8410    0.8940    5.5060 hc        1 C11      0.038700
     39 H111        9.6130   -1.2520    7.7310 hc        1 C11      0.032700
     40 H112       11.0510   -0.2040    7.3910 hc        1 C11      0.032700
     41 H113        9.5060    0.5370    7.9760 hc        1 C11      0.032700
     42 HP          0.2730    1.5180   -2.3650 hp        1 C11     -0.167400
     43 HY11       -2.2640   -1.1970   -2.9560 h1        1 C11      0.042700
     44 HY12       -2.0280    0.2100   -4.0960 h1        1 C11      0.042700
     45 HY21       -4.0920    1.3230   -3.1360 hc        1 C11      0.052200
     46 HY22       -4.3290   -0.0680   -2.0130 hc        1 C11      0.052200
     47 HY31       -4.3040   -0.2330   -5.1120 hc        1 C11      0.042200
     48 HY32       -4.5380   -1.6270   -3.9880 hc        1 C11      0.042200
     49 HY41       -6.6010   -0.5270   -3.0500 hc        1 C11      0.034033
     50 HY42       -6.7230   -0.7770   -4.8410 hc        1 C11      0.034033
     51 HY43       -6.3650    0.8710   -4.1760 hc        1 C11      0.034033
@<TRIPOS>BOND
     1    1    2 1   
     2    1   12 1   
     3    1   19 1   
     4    1   20 1   
     5    2    3 1   
     6    2   21 1   
     7    2   22 1   
     8    3    4 1   
     9    3   23 1   
    10    3   24 1   
    11    4    5 1   
    12    4   25 1   
    13    4   26 1   
    14    5    6 1   
    15    5   27 1   
    16    5   28 1   
    17    6    7 1   
    18    6   29 1   
    19    6   30 1   
    20    7    8 1   
    21    7   31 1   
    22    7   32 1   
    23    8    9 1   
    24    8   33 1   
    25    8   34 1   
    26    9   10 1   
    27    9   35 1   
    28    9   36 1   
    29   10   11 1   
    30   10   37 1   
    31   10   38 1   
    32   11   39 1   
    33   11   40 1   
    34   11   41 1   
    35   12   13 2   
    36   12   14 1   
    37   12   42 1   
    38   14   15 1   
    39   15   16 1   
    40   15   43 1   
    41   15   44 1   
    42   16   17 1   
    43   16   45 1   
    44   16   46 1   
    45   17   18 1   
    46   17   47 1   
    47   17   48 1   
    48   18   49 1   
    49   18   50 1   
    50   18   51 1   
@<TRIPOS>SUBSTRUCTURE
     1 C11         1 TEMP              0 ****  ****    0 ROOT
