@<TRIPOS>MOLECULE
molecule
   51    50     1     0     0
SMALL
bcc


@<TRIPOS>ATOM
      1 C1           0.0000     0.0000     0.0000 c3         1 C11      -0.254600
      2 C2           1.5290     0.0000     0.0000 c3         1 C11      -0.060400
      3 C3           2.0400     0.0000     1.4410 c3         1 C11      -0.074400
      4 C4           3.5700    -0.0000     1.4400 c3         1 C11      -0.083400
      5 C5           4.0820    -0.0010     2.8810 c3         1 C11      -0.081400
      6 C6           5.6110    -0.0010     2.8800 c3         1 C11      -0.081400
      7 C7           6.1230    -0.0020     4.3210 c3         1 C11      -0.081400
      8 C8           7.6520    -0.0020     4.3210 c3         1 C11      -0.082400
      9 C9           8.1650    -0.0020     5.7620 c3         1 C11      -0.081400
     10 C10          9.6940    -0.0020     5.7620 c3         1 C11      -0.084400
     11 C11         10.2060    -0.0030     7.2020 c3         1 C11      -0.092100
     12 P           -0.6100     0.0010    -1.7170 p5         1 C11       1.136300
     13 O1P         -0.1170    -1.2060    -2.4160 o          1 C11      -0.774300
     14 O2P         -2.2200     0.0010    -1.7160 os         1 C11      -0.521200
     15 CY1         -2.6350     0.0010    -3.0830 c3         1 C11       0.128400
     16 CY2         -4.1630     0.0010    -3.1540 c3         1 C11      -0.076400
     17 CY3         -4.6070     0.0020    -4.6170 c3         1 C11      -0.086400
     18 CY4         -6.1350     0.0020    -4.6880 c3         1 C11      -0.089100
     19 H11         -0.3610    -0.8850     0.5100 hc         1 C11       0.080700
     20 H12         -0.3610     0.8840     0.5120 hc         1 C11       0.080700
     21 H21          1.8900     0.8840    -0.5110 hc         1 C11       0.051700
     22 H22          1.8900    -0.8840    -0.5110 hc         1 C11       0.051700
     23 H31          1.6800     0.8850     1.9520 hc         1 C11       0.042700
     24 H32          1.6800    -0.8840     1.9520 hc         1 C11       0.042700
     25 H41          3.9310    -0.8850     0.9280 hc         1 C11       0.043200
     26 H42          3.9310     0.8840     0.9290 hc         1 C11       0.043200
     27 H51          3.7220    -0.8860     3.3920 hc         1 C11       0.041200
     28 H52          3.7210     0.8830     3.3930 hc         1 C11       0.041200
     29 H61          5.9710     0.8840     2.3690 hc         1 C11       0.041700
     30 H62          5.9720    -0.8850     2.3680 hc         1 C11       0.041700
     31 H71          5.7620    -0.8860     4.8320 hc         1 C11       0.041200
     32 H72          5.7620     0.8830     4.8330 hc         1 C11       0.041200
     33 H81          8.0130    -0.8860     3.8100 hc         1 C11       0.041200
     34 H82          8.0130     0.8830     3.8100 hc         1 C11       0.041200
     35 H91          7.8040     0.8820     6.2730 hc         1 C11       0.040700
     36 H92          7.8040    -0.8860     6.2730 hc         1 C11       0.040700
     37 H101        10.0550     0.8830     5.2510 hc         1 C11       0.039700
     38 H102        10.0550    -0.8860     5.2500 hc         1 C11       0.039700
     39 H111         9.8460    -0.8880     7.7130 hc         1 C11       0.032367
     40 H112         9.8460     0.8810     7.7150 hc         1 C11       0.032367
     41 H113        11.2900    -0.0030     7.2000 hc         1 C11       0.032367
     42 HP          -0.1430     1.1490    -2.3790 hp         1 C11      -0.090400
     43 HY11        -2.2510    -0.8830    -3.5770 h1         1 C11       0.050200
     44 HY12        -2.2510     0.8860    -3.5760 h1         1 C11       0.050200
     45 HY21        -4.5470     0.8850    -2.6590 hc         1 C11       0.056700
     46 HY22        -4.5470    -0.8840    -2.6610 hc         1 C11       0.056700
     47 HY31        -4.2230     0.8870    -5.1100 hc         1 C11       0.043200
     48 HY32        -4.2230    -0.8820    -5.1120 hc         1 C11       0.043200
     49 HY41        -6.5190     0.8860    -4.1940 hc         1 C11       0.035700
     50 HY42        -6.5190    -0.8830    -4.1960 hc         1 C11       0.035700
     51 HY43        -6.4480     0.0030    -5.7250 hc         1 C11       0.035700
@<TRIPOS>BOND
     1     1     2 1
     2     1    12 1
     3     1    19 1
     4     1    20 1
     5     2     3 1
     6     2    21 1
     7     2    22 1
     8     3     4 1
     9     3    23 1
    10     3    24 1
    11     4     5 1
    12     4    25 1
    13     4    26 1
    14     5     6 1
    15     5    27 1
    16     5    28 1
    17     6     7 1
    18     6    29 1
    19     6    30 1
    20     7     8 1
    21     7    31 1
    22     7    32 1
    23     8     9 1
    24     8    33 1
    25     8    34 1
    26     9    10 1
    27     9    35 1
    28     9    36 1
    29    10    11 1
    30    10    37 1
    31    10    38 1
    32    11    39 1
    33    11    40 1
    34    11    41 1
    35    12    13 2
    36    12    14 1
    37    12    42 1
    38    14    15 1
    39    15    16 1
    40    15    43 1
    41    15    44 1
    42    16    17 1
    43    16    45 1
    44    16    46 1
    45    17    18 1
    46    17    47 1
    47    17    48 1
    48    18    49 1
    49    18    50 1
    50    18    51 1
@<TRIPOS>SUBSTRUCTURE
     1 C11         1 TEMP              0 ****  ****    0 ROOT
