@<TRIPOS>MOLECULE
C11
   51    50     1     0     0
SMALL
bcc


@<TRIPOS>ATOM
      1 C1          0.1480    0.2380   -0.4340 c3        1 C11     -0.411600
      2 C2          1.6460    0.3270   -0.2830 c3        1 C11     -0.074400
      3 C3          2.0980    0.1160    1.1440 c3        1 C11     -0.070400
      4 C4          3.6030    0.2210    1.2620 c3        1 C11     -0.080400
      5 C5          4.0560    0.0090    2.6910 c3        1 C11     -0.078400
      6 C6          5.5610    0.1170    2.8120 c3        1 C11     -0.079400
      7 C7          6.0130   -0.0930    4.2410 c3        1 C11     -0.078400
      8 C8          7.5180    0.0150    4.3620 c3        1 C11     -0.079400
      9 C9          7.9710   -0.1930    5.7910 c3        1 C11     -0.079400
     10 C10         9.4760   -0.0840    5.9140 c3        1 C11     -0.080400
     11 C11         9.9310   -0.2910    7.3350 c3        1 C11     -0.092100
     12 P          -0.1990    0.4070   -2.0270 p5        1 C11      1.450300
     13 O1P         0.2040   -0.6600   -2.9350 o         1 C11     -0.849300
     14 O2P        -1.7990    0.6180   -2.0780 os        1 C11     -0.604200
     15 CY1        -2.4510   -0.0760   -3.1220 c3        1 C11      0.174400
     16 CY2        -3.9390    0.2010   -3.0320 c3        1 C11     -0.083400
     17 CY3        -4.6790   -0.5170   -4.1400 c3        1 C11     -0.081400
     18 CY4        -6.1620   -0.2570   -4.0660 c3        1 C11     -0.092100
     19 H11        -0.2040   -0.7470   -0.0280 hc        1 C11      0.112700
     20 H12        -0.3440    1.0070    0.2150 hc        1 C11      0.112700
     21 H21         2.1170   -0.4450   -0.9510 hc        1 C11      0.054700
     22 H22         1.9860    1.3360   -0.6420 hc        1 C11      0.054700
     23 H31         1.7620   -0.8940    1.4970 hc        1 C11      0.043700
     24 H32         1.6120    0.8780    1.8080 hc        1 C11      0.043700
     25 H41         4.0880   -0.5410    0.5970 hc        1 C11      0.042700
     26 H42         3.9400    1.2310    0.9070 hc        1 C11      0.042700
     27 H51         3.5690    0.7710    3.3570 hc        1 C11      0.040200
     28 H52         3.7210   -1.0010    3.0460 hc        1 C11      0.040200
     29 H61         6.0460   -0.6450    2.1470 hc        1 C11      0.040700
     30 H62         5.8950    1.1270    2.4560 hc        1 C11      0.040700
     31 H71         5.6790   -1.1030    4.5970 hc        1 C11      0.039700
     32 H72         5.5260    0.6680    4.9060 hc        1 C11      0.039700
     33 H81         8.0050   -0.7470    3.6980 hc        1 C11      0.039700
     34 H82         7.8520    1.0260    4.0050 hc        1 C11      0.039700
     35 H91         7.6370   -1.2030    6.1480 hc        1 C11      0.039700
     36 H92         7.4840    0.5690    6.4550 hc        1 C11      0.039700
     37 H101        9.9610   -0.8470    5.2480 hc        1 C11      0.038700
     38 H102        9.8080    0.9250    5.5550 hc        1 C11      0.038700
     39 H111        9.6310   -1.3020    7.7030 hc        1 C11      0.032700
     40 H112        9.4780    0.4750    8.0100 hc        1 C11      0.032700
     41 H113       11.0430   -0.2070    7.4030 hc        1 C11      0.032700
     42 HP          0.2420    1.5820   -2.3150 hp        1 C11     -0.167400
     43 HY11       -2.0230    0.2830   -4.0970 h1        1 C11      0.042700
     44 HY12       -2.2250   -1.1710   -3.0120 h1        1 C11      0.042700
     45 HY21       -4.1170    1.3060   -3.1000 hc        1 C11      0.052200
     46 HY22       -4.3190   -0.1340   -2.0320 hc        1 C11      0.052200
     47 HY31       -4.2860   -0.1790   -5.1350 hc        1 C11      0.042200
     48 HY32       -4.4860   -1.6200   -4.0660 hc        1 C11      0.042200
     49 HY41       -6.6900   -0.7940   -4.8910 hc        1 C11      0.034033
     50 HY42       -6.5770   -0.6110   -3.0920 hc        1 C11      0.034033
     51 HY43       -6.3760    0.8350   -4.1620 hc        1 C11      0.034033
@<TRIPOS>BOND
     1    1    2 1   
     2    1   12 1   
     3    1   19 1   
     4    1   20 1   
     5    2    3 1   
     6    2   21 1   
     7    2   22 1   
     8    3    4 1   
     9    3   23 1   
    10    3   24 1   
    11    4    5 1   
    12    4   25 1   
    13    4   26 1   
    14    5    6 1   
    15    5   27 1   
    16    5   28 1   
    17    6    7 1   
    18    6   29 1   
    19    6   30 1   
    20    7    8 1   
    21    7   31 1   
    22    7   32 1   
    23    8    9 1   
    24    8   33 1   
    25    8   34 1   
    26    9   10 1   
    27    9   35 1   
    28    9   36 1   
    29   10   11 1   
    30   10   37 1   
    31   10   38 1   
    32   11   39 1   
    33   11   40 1   
    34   11   41 1   
    35   12   13 2   
    36   12   14 1   
    37   12   42 1   
    38   14   15 1   
    39   15   16 1   
    40   15   43 1   
    41   15   44 1   
    42   16   17 1   
    43   16   45 1   
    44   16   46 1   
    45   17   18 1   
    46   17   47 1   
    47   17   48 1   
    48   18   49 1   
    49   18   50 1   
    50   18   51 1   
@<TRIPOS>SUBSTRUCTURE
     1 C11         1 TEMP              0 ****  ****    0 ROOT
