@<TRIPOS>MOLECULE
molecule
   42    43     1     0     0
SMALL
bcc


@<TRIPOS>ATOM
      1 OAA          0.0000     0.0000     0.0000 o          1 C13      -0.647100
      2 ClC          4.6190    -2.7010    10.6370 cl         1 C13      -0.097400
      3 CAD         -0.1810    -0.2900    -4.7700 ca         1 C13      -0.146000
      4 CAE         -0.7350     0.4050    -3.7100 ca         1 C13      -0.114000
      5 CAF          1.0570    -0.8900    -4.6370 ca         1 C13      -0.114000
      6 CAG         -0.0500     0.5030    -2.5150 ca         1 C13      -0.145000
      7 CAH          1.7470    -0.7950    -3.4430 ca         1 C13      -0.145000
      8 CAI          4.5020     0.0010    10.5060 ca         1 C13      -0.116000
      9 CAJ          3.1120     1.1980     8.9650 ca         1 C13      -0.109500
     10 CAK          3.1120    -1.1970     8.9640 ca         1 C13      -0.109500
     11 CAL          2.1510     0.0000     3.5990 c3         1 C13      -0.103400
     12 CAM          1.3860     0.0000     4.9240 c3         1 C13       0.160800
     13 CAN          1.1570     0.0010     2.4360 c3         1 C13       0.130000
     14 CAO          1.6400     0.0010     7.3320 c3         1 C13       0.206100
     15 NAP          2.3400     0.0010     6.0410 n7         1 C13      -0.815200
     16 NAQ          1.8900     0.0000     1.1670 ns         1 C13      -0.602900
     17 NAR          1.8900     0.0000    -1.1670 ns         1 C13      -0.493100
     18 CAS          1.2160     0.0000     0.0000 c          1 C13       0.783100
     19 CAT          4.0380     1.1980     9.9920 ca         1 C13       0.035400
     20 CAU          4.0370    -1.1970     9.9920 ca         1 C13       0.035400
     21 CAV          2.6490     0.0010     8.4520 ca         1 C13      -0.069300
     22 CAW          1.1940    -0.0980    -2.3770 ca         1 C13       0.070600
     23 HAD         -0.7210    -0.3660    -5.7060 ha         1 C13       0.128000
     24 HAE         -1.7050     0.8740    -3.8170 ha         1 C13       0.131000
     25 HAF          1.4880    -1.4330    -5.4690 ha         1 C13       0.131000
     26 HAG         -0.4840     1.0480    -1.6850 ha         1 C13       0.147500
     27 HAH          2.7180    -1.2650    -3.3390 ha         1 C13       0.147500
     28 HAI          5.1990     0.0010    11.3350 ha         1 C13       0.158000
     29 HAJ          2.7490     2.1370     8.5620 ha         1 C13       0.149500
     30 HAK          2.7490    -2.1350     8.5620 ha         1 C13       0.149500
     31 HAL          2.7730    -0.8840     3.5410 hc         1 C13       0.053200
     32 HALA         2.7740     0.8850     3.5420 hc         1 C13       0.053200
     33 HAM          0.7630    -0.8850     4.9820 h1         1 C13       0.037700
     34 HAMA         0.7630     0.8840     4.9820 h1         1 C13       0.037700
     35 HAN          0.5350     0.8860     2.4930 h1         1 C13       0.054700
     36 HANA         0.5340    -0.8830     2.4940 h1         1 C13       0.054700
     37 HAO          1.0200     0.8860     7.4060 h1         1 C13       0.044200
     38 HAOA         1.0190    -0.8830     7.4060 h1         1 C13       0.044200
     39 HNAP         2.9260    -0.8090     5.9790 hn         1 C13       0.356800
     40 HNAQ         2.8900    -0.0000     1.1670 hn         1 C13       0.308500
     41 HNAR         2.8860     0.1000    -1.1700 hn         1 C13       0.316500
     42 ClB          4.6200     2.7020    10.6360 cl         1 C13      -0.097400
@<TRIPOS>BOND
     1     1    18 2
     2    42    19 1
     3     2    20 1
     4     3     4 ar
     5     3     5 ar
     6     4     6 ar
     7     5     7 ar
     8     6    22 ar
     9     7    22 ar
    10     8    19 ar
    11     8    20 ar
    12     9    19 ar
    13     9    21 ar
    14    10    20 ar
    15    10    21 ar
    16    11    12 1
    17    11    13 1
    18    12    15 1
    19    13    16 1
    20    14    15 1
    21    14    21 1
    22    16    18 1
    23    17    18 1
    24    17    22 1
    25     3    23 1
    26     4    24 1
    27     5    25 1
    28     6    26 1
    29     7    27 1
    30     8    28 1
    31     9    29 1
    32    10    30 1
    33    11    31 1
    34    11    32 1
    35    12    33 1
    36    12    34 1
    37    13    35 1
    38    13    36 1
    39    14    37 1
    40    14    38 1
    41    15    39 1
    42    16    40 1
    43    17    41 1
@<TRIPOS>SUBSTRUCTURE
     1 C13         1 TEMP              0 ****  ****    0 ROOT
