@<TRIPOS>MOLECULE
C13
   42    43     1     0     0
SMALL
bcc


@<TRIPOS>ATOM
      1 OAA          0.0000     0.0000     0.0000 o          1 C13      -0.695100
      2 ClC          4.6190    -2.7010    10.6370 cl         1 C13      -0.018400
      3 CAD         -0.1810    -0.2900    -4.7700 ca         1 C13      -0.118000
      4 CAE         -0.7350     0.4050    -3.7100 ca         1 C13      -0.084500
      5 CAF          1.0570    -0.8900    -4.6370 ca         1 C13      -0.084500
      6 CAG         -0.0500     0.5030    -2.5150 ca         1 C13      -0.121000
      7 CAH          1.7470    -0.7950    -3.4430 ca         1 C13      -0.121000
      8 CAI          4.5020     0.0010    10.5060 ca         1 C13      -0.097000
      9 CAJ          3.1120     1.1980     8.9650 ca         1 C13      -0.087000
     10 CAK          3.1120    -1.1970     8.9640 ca         1 C13      -0.087000
     11 CAL          2.1510     0.0000     3.5990 c3         1 C13      -0.044400
     12 CAM          1.3860     0.0000     4.9240 c3         1 C13       0.149800
     13 CAN          1.1570     0.0010     2.4360 c3         1 C13       0.067000
     14 CAO          1.6400     0.0010     7.3320 c3         1 C13       0.203100
     15 NAP          2.3400     0.0010     6.0410 n7         1 C13      -0.584200
     16 NAQ          1.8900     0.0000     1.1670 ns         1 C13      -0.220900
     17 NAR          1.8900     0.0000    -1.1670 ns         1 C13      -0.054100
     18 CAS          1.2160     0.0000     0.0000 c          1 C13       0.567100
     19 CAT          4.0380     1.1980     9.9920 ca         1 C13      -0.026600
     20 CAU          4.0370    -1.1970     9.9920 ca         1 C13      -0.026600
     21 CAV          2.6490     0.0010     8.4520 ca         1 C13      -0.075300
     22 CAW          1.1940    -0.0980    -2.3770 ca         1 C13      -0.075400
     23 HAD         -0.7210    -0.3660    -5.7060 ha         1 C13       0.101000
     24 HAE         -1.7050     0.8740    -3.8170 ha         1 C13       0.101500
     25 HAF          1.4880    -1.4330    -5.4690 ha         1 C13       0.101500
     26 HAG         -0.4840     1.0480    -1.6850 ha         1 C13       0.125500
     27 HAH          2.7180    -1.2650    -3.3390 ha         1 C13       0.125500
     28 HAI          5.1990     0.0010    11.3350 ha         1 C13       0.126000
     29 HAJ          2.7490     2.1370     8.5620 ha         1 C13       0.120000
     30 HAK          2.7490    -2.1350     8.5620 ha         1 C13       0.120000
     31 HAL          2.7730    -0.8840     3.5410 hc         1 C13       0.021700
     32 HALA         2.7740     0.8850     3.5420 hc         1 C13       0.021700
     33 HAM          0.7630    -0.8850     4.9820 h1         1 C13       0.010700
     34 HAMA         0.7630     0.8840     4.9820 h1         1 C13       0.010700
     35 HAN          0.5350     0.8860     2.4930 h1         1 C13       0.026700
     36 HANA         0.5340    -0.8830     2.4940 h1         1 C13       0.026700
     37 HAO          1.0200     0.8860     7.4060 h1         1 C13       0.013700
     38 HAOA         1.0190    -0.8830     7.4060 h1         1 C13       0.013700
     39 HNAP         2.9260    -0.8090     5.9790 hn         1 C13       0.255800
     40 HNAQ         2.8900    -0.0000     1.1670 hn         1 C13       0.168500
     41 HNAR         2.8860     0.1000    -1.1700 hn         1 C13       0.159500
     42 ClB          4.6200     2.7020    10.6360 cl         1 C13      -0.018400
@<TRIPOS>BOND
     1     1    18 2   
     2     2    20 1   
     3     3     4 ar  
     4     3     5 ar  
     5     3    23 1   
     6     4     6 ar  
     7     4    24 1   
     8     5     7 ar  
     9     5    25 1   
    10     6    22 ar  
    11     6    26 1   
    12     7    22 ar  
    13     7    27 1   
    14     8    19 ar  
    15     8    20 ar  
    16     8    28 1   
    17     9    19 ar  
    18     9    21 ar  
    19     9    29 1   
    20    10    20 ar  
    21    10    21 ar  
    22    10    30 1   
    23    11    12 1   
    24    11    13 1   
    25    11    31 1   
    26    11    32 1   
    27    12    15 1   
    28    12    33 1   
    29    12    34 1   
    30    13    16 1   
    31    13    35 1   
    32    13    36 1   
    33    14    15 1   
    34    14    21 1   
    35    14    37 1   
    36    14    38 1   
    37    15    39 1   
    38    16    18 1   
    39    16    40 1   
    40    17    18 1   
    41    17    22 1   
    42    17    41 1   
    43    19    42 1   
@<TRIPOS>SUBSTRUCTURE
     1 C13         1 TEMP              0 ****  ****    0 ROOT
