@<TRIPOS>MOLECULE
C14
   44    43     1     0     0
SMALL
bcc


@<TRIPOS>ATOM
      1 C01         0.0060    0.0000   -0.0110 c3        1 C14     -0.092100
      2 C02         1.5130   -0.0000    0.0160 c3        1 C14     -0.080400
      3 C03         2.0440   -0.0000    1.4330 c3        1 C14     -0.079400
      4 C04         3.5570   -0.0010    1.4550 c3        1 C14     -0.079400
      5 C05         4.0870   -0.0010    2.8730 c3        1 C14     -0.079400
      6 C06         5.6000   -0.0020    2.8950 c3        1 C14     -0.079400
      7 C07         6.1300   -0.0020    4.3130 c3        1 C14     -0.079400
      8 C08         7.6430   -0.0020    4.3340 c3        1 C14     -0.079400
      9 C09         8.1730   -0.0020    5.7520 c3        1 C14     -0.079400
     10 C10         9.6860   -0.0030    5.7740 c3        1 C14     -0.079400
     11 C11        10.2160   -0.0030    7.1920 c3        1 C14     -0.079400
     12 C12        11.7290   -0.0040    7.2140 c3        1 C14     -0.079400
     13 C13        12.2600   -0.0040    8.6320 c3        1 C14     -0.080400
     14 C14        13.7660   -0.0040    8.6580 c3        1 C14     -0.092100
     15 H011       -0.3640    0.0000   -1.0650 hc        1 C14      0.032700
     16 H012       -0.3970    0.9050    0.5050 hc        1 C14      0.032700
     17 H013       -0.3980   -0.9050    0.5050 hc        1 C14      0.032700
     18 H021        1.8990   -0.9030   -0.5280 hc        1 C14      0.038700
     19 H022        1.9000    0.9020   -0.5280 hc        1 C14      0.038700
     20 H031        1.6600    0.9020    1.9780 hc        1 C14      0.039700
     21 H032        1.6590   -0.9030    1.9780 hc        1 C14      0.039700
     22 H041        3.9420    0.9010    0.9100 hc        1 C14      0.039700
     23 H042        3.9410   -0.9040    0.9100 hc        1 C14      0.039700
     24 H051        3.7030   -0.9030    3.4180 hc        1 C14      0.039700
     25 H052        3.7030    0.9020    3.4180 hc        1 C14      0.039700
     26 H061        5.9840   -0.9040    2.3500 hc        1 C14      0.039700
     27 H062        5.9850    0.9010    2.3500 hc        1 C14      0.039700
     28 H071        5.7460    0.9010    4.8570 hc        1 C14      0.039700
     29 H072        5.7450   -0.9040    4.8580 hc        1 C14      0.039700
     30 H081        8.0270   -0.9050    3.7900 hc        1 C14      0.039700
     31 H082        8.0270    0.9000    3.7890 hc        1 C14      0.039700
     32 H091        7.7890    0.9000    6.2970 hc        1 C14      0.039700
     33 H092        7.7880   -0.9050    6.2970 hc        1 C14      0.039700
     34 H101       10.0700   -0.9060    5.2290 hc        1 C14      0.039700
     35 H102       10.0700    0.8990    5.2290 hc        1 C14      0.039700
     36 H111        9.8320    0.9000    7.7370 hc        1 C14      0.039700
     37 H112        9.8310   -0.9050    7.7370 hc        1 C14      0.039700
     38 H121       12.1130    0.8990    6.6690 hc        1 C14      0.039700
     39 H122       12.1130   -0.9060    6.6690 hc        1 C14      0.039700
     40 H131       11.8740    0.8990    9.1750 hc        1 C14      0.038700
     41 H132       11.8730   -0.9060    9.1750 hc        1 C14      0.038700
     42 H141       14.1700   -0.9090    8.1430 hc        1 C14      0.032700
     43 H142       14.1360   -0.0040    9.7120 hc        1 C14      0.032700
     44 H143       14.1700    0.9010    8.1430 hc        1 C14      0.032700
@<TRIPOS>BOND
     1    1    2 1   
     2    1   15 1   
     3    1   16 1   
     4    1   17 1   
     5    2    3 1   
     6    2   18 1   
     7    2   19 1   
     8    3    4 1   
     9    3   20 1   
    10    3   21 1   
    11    4    5 1   
    12    4   22 1   
    13    4   23 1   
    14    5    6 1   
    15    5   24 1   
    16    5   25 1   
    17    6    7 1   
    18    6   26 1   
    19    6   27 1   
    20    7    8 1   
    21    7   28 1   
    22    7   29 1   
    23    8    9 1   
    24    8   30 1   
    25    8   31 1   
    26    9   10 1   
    27    9   32 1   
    28    9   33 1   
    29   10   11 1   
    30   10   34 1   
    31   10   35 1   
    32   11   12 1   
    33   11   36 1   
    34   11   37 1   
    35   12   13 1   
    36   12   38 1   
    37   12   39 1   
    38   13   14 1   
    39   13   40 1   
    40   13   41 1   
    41   14   42 1   
    42   14   43 1   
    43   14   44 1   
@<TRIPOS>SUBSTRUCTURE
     1 C14         1 TEMP              0 ****  ****    0 ROOT
