@<TRIPOS>MOLECULE
molecule
   44    43     1     0     0
SMALL
bcc


@<TRIPOS>ATOM
      1 C01          0.0000     0.0000     0.0000 c3         1 C14      -0.092100
      2 C02          1.5290     0.0000     0.0000 c3         1 C14      -0.084400
      3 C03          2.0400     0.0000     1.4420 c3         1 C14      -0.081400
      4 C04          3.5700    -0.0010     1.4420 c3         1 C14      -0.082400
      5 C05          4.0810    -0.0010     2.8820 c3         1 C14      -0.082400
      6 C06          5.6110    -0.0020     2.8820 c3         1 C14      -0.081900
      7 C07          6.1210    -0.0020     4.3240 c3         1 C14      -0.081900
      8 C08          7.6510    -0.0020     4.3230 c3         1 C14      -0.081900
      9 C09          8.1620    -0.0020     5.7650 c3         1 C14      -0.081900
     10 C10          9.6920    -0.0030     5.7650 c3         1 C14      -0.082400
     11 C11         10.2030    -0.0030     7.2060 c3         1 C14      -0.082400
     12 C12         11.7330    -0.0040     7.2060 c3         1 C14      -0.081400
     13 C13         12.2430    -0.0040     8.6470 c3         1 C14      -0.084400
     14 C14         13.7730    -0.0040     8.6470 c3         1 C14      -0.092100
     15 H011        -0.3610     0.0000    -1.0210 hc         1 C14       0.032367
     16 H012        -0.3610     0.8840     0.5110 hc         1 C14       0.032367
     17 H013        -0.3610    -0.8850     0.5100 hc         1 C14       0.032367
     18 H021         1.8900    -0.8840    -0.5110 hc         1 C14       0.039700
     19 H022         1.8900     0.8840    -0.5110 hc         1 C14       0.039700
     20 H031         1.6800     0.8850     1.9520 hc         1 C14       0.040700
     21 H032         1.6790    -0.8840     1.9530 hc         1 C14       0.040700
     22 H041         3.9300    -0.8860     0.9310 hc         1 C14       0.040700
     23 H042         3.9310     0.8830     0.9300 hc         1 C14       0.040700
     24 H051         3.7210     0.8840     3.3930 hc         1 C14       0.040700
     25 H052         3.7200    -0.8850     3.3940 hc         1 C14       0.040700
     26 H061         5.9720     0.8820     2.3710 hc         1 C14       0.040700
     27 H062         5.9710    -0.8870     2.3720 hc         1 C14       0.040700
     28 H071         5.7610     0.8820     4.8350 hc         1 C14       0.040700
     29 H072         5.7610    -0.8870     4.8350 hc         1 C14       0.040700
     30 H081         8.0120    -0.8860     3.8120 hc         1 C14       0.040700
     31 H082         8.0120     0.8830     3.8120 hc         1 C14       0.040700
     32 H091         7.8020     0.8830     6.2750 hc         1 C14       0.040700
     33 H092         7.8010    -0.8860     6.2760 hc         1 C14       0.040700
     34 H101        10.0520    -0.8880     5.2540 hc         1 C14       0.040700
     35 H102        10.0530     0.8810     5.2540 hc         1 C14       0.040700
     36 H111         9.8420    -0.8870     7.7170 hc         1 C14       0.040700
     37 H112         9.8430     0.8820     7.7160 hc         1 C14       0.040700
     38 H121        12.0930    -0.8890     6.6950 hc         1 C14       0.040700
     39 H122        12.0940     0.8800     6.6940 hc         1 C14       0.040700
     40 H131        11.8820    -0.8880     9.1580 hc         1 C14       0.039700
     41 H132        11.8820     0.8800     9.1580 hc         1 C14       0.039700
     42 H141        14.1340    -0.0040     9.6680 hc         1 C14       0.032367
     43 H142        14.1340    -0.8880     8.1360 hc         1 C14       0.032367
     44 H143        14.1340     0.8810     8.1370 hc         1 C14       0.032367
@<TRIPOS>BOND
     1     1     2 1
     2     1    15 1
     3     1    16 1
     4     1    17 1
     5     2     3 1
     6     2    18 1
     7     2    19 1
     8     3     4 1
     9     3    20 1
    10     3    21 1
    11     4     5 1
    12     4    22 1
    13     4    23 1
    14     5     6 1
    15     5    24 1
    16     5    25 1
    17     6     7 1
    18     6    26 1
    19     6    27 1
    20     7     8 1
    21     7    28 1
    22     7    29 1
    23     8     9 1
    24     8    30 1
    25     8    31 1
    26     9    10 1
    27     9    32 1
    28     9    33 1
    29    10    11 1
    30    10    34 1
    31    10    35 1
    32    11    12 1
    33    11    36 1
    34    11    37 1
    35    12    13 1
    36    12    38 1
    37    12    39 1
    38    13    14 1
    39    13    40 1
    40    13    41 1
    41    14    42 1
    42    14    43 1
    43    14    44 1
@<TRIPOS>SUBSTRUCTURE
     1 C14         1 TEMP              0 ****  ****    0 ROOT
