@<TRIPOS>MOLECULE
molecule
   59    58     1     0     0
SMALL
bcc


@<TRIPOS>ATOM
      1 C1           0.0000     0.0000     0.0000 c3         1 C15      -0.230600
      2 C2           1.5220     0.0000     0.0000 c3         1 C15      -0.078400
      3 C3           2.1260     0.0000     1.3980 c3         1 C15       0.130800
      4 C5           5.5550     0.4200   -11.0820 c3         1 C15      -0.090100
      5 C6           5.8800     0.7860    -9.6420 c3         1 C15      -0.082400
      6 C7           5.5720    -0.3680    -8.6880 c3         1 C15      -0.079400
      7 C8           5.9310    -0.0080    -7.2460 c3         1 C15      -0.078400
      8 N1           3.6590    -0.0130     1.3260 n4         1 C15      -0.629800
      9 C1N          4.1070     1.2120     0.5150 c3         1 C15       0.119600
     10 C2N          4.2040     0.1390     2.7540 c3         1 C15       0.119600
     11 C9           5.5920    -1.1510    -6.2870 c3         1 C15      -0.077400
     12 C10          5.9880    -0.8030    -4.8500 c3         1 C15      -0.076400
     13 C11          5.7370    -1.9430    -3.8570 c3         1 C15      -0.081400
     14 C12          6.1090    -1.5860    -2.4150 c3         1 C15      -0.076400
     15 C13          5.8640    -2.7680    -1.4740 c3         1 C15      -0.086400
     16 C14          6.3040    -2.5000    -0.0310 c3         1 C15      -0.068400
     17 C15          5.6710    -1.2750     0.6410 c3         1 C15      -0.104400
     18 C16          4.1490    -1.2650     0.7040 c3         1 C15       0.120800
     19 S1          -0.6390     0.0280    -1.6460 s6         1 C15       1.095800
     20 O1S         -0.1700    -1.1490    -2.3530 o          1 C15      -0.646867
     21 O2S         -0.4650     1.3620    -2.1920 o          1 C15      -0.646867
     22 O3S         -2.2120    -0.1800    -1.2650 o          1 C15      -0.646867
     23 H1C1        -0.3550    -0.8910     0.5030 h1         1 C15       0.092200
     24 H1C2        -0.3550     0.8740     0.5330 h1         1 C15       0.092200
     25 H2C1         1.8690    -0.8800    -0.5270 hc         1 C15       0.058200
     26 H2C2         1.8690     0.8800    -0.5270 hc         1 C15       0.058200
     27 H3C1         1.8010     0.8880     1.9270 hx         1 C15       0.090700
     28 H3C2         1.7860    -0.8790     1.9330 hx         1 C15       0.090700
     29 H5C1         4.5040     0.1710   -11.1640 hc         1 C15       0.033700
     30 H5C2         5.7790     1.2600   -11.7280 hc         1 C15       0.033700
     31 H5C3         6.1520    -0.4340   -11.3810 hc         1 C15       0.033700
     32 H6C1         6.9310     1.0350    -9.5690 hc         1 C15       0.038200
     33 H6C2         5.2910     1.6490    -9.3550 hc         1 C15       0.038200
     34 H7C1         4.5160    -0.6020    -8.7430 hc         1 C15       0.041700
     35 H7C2         6.1440    -1.2380    -8.9880 hc         1 C15       0.041700
     36 H8C1         5.3770     0.8760    -6.9540 hc         1 C15       0.038700
     37 H8C2         6.9920     0.2020    -7.1860 hc         1 C15       0.038700
     38 HCN1         5.1550     1.4090     0.7070 hx         1 C15       0.089033
     39 HCN2         3.5180     2.0740     0.8060 hx         1 C15       0.089033
     40 HCN3         3.9640     1.0180    -0.5420 hx         1 C15       0.089033
     41 HCN4         5.2650     0.3550     2.7150 hx         1 C15       0.089033
     42 HCN5         4.0420    -0.7810     3.3020 hx         1 C15       0.089033
     43 HCN6         3.6880     0.9510     3.2520 hx         1 C15       0.089033
     44 H9C1         4.5260    -1.3420    -6.3250 hc         1 C15       0.045200
     45 H9C2         6.1240    -2.0430    -6.5960 hc         1 C15       0.045200
     46 H101         5.4200     0.0630    -4.5340 hc         1 C15       0.035700
     47 H102         7.0420    -0.5540    -4.8310 hc         1 C15       0.035700
     48 H111         6.3190    -2.8030    -4.1630 hc         1 C15       0.047700
     49 H112         4.6860    -2.2050    -3.8890 hc         1 C15       0.047700
     50 H121         7.1570    -1.3130    -2.3770 hc         1 C15       0.031700
     51 H122         5.5100    -0.7440    -2.0920 hc         1 C15       0.031700
     52 H131         4.8060    -2.9990    -1.4770 hc         1 C15       0.053700
     53 H132         6.4080    -3.6270    -1.8480 hc         1 C15       0.053700
     54 H141         7.3790    -2.3700    -0.0250 hc         1 C15       0.053700
     55 H142         6.0630    -3.3730     0.5630 hc         1 C15       0.053700
     56 H151         5.9930    -0.3910     0.1040 hc         1 C15       0.047700
     57 H152         6.0510    -1.2130     1.6540 hc         1 C15       0.047700
     58 H161         3.7500    -1.3440    -0.3000 hx         1 C15       0.104700
     59 H162         3.8100    -2.1110     1.2900 hx         1 C15       0.104700
@<TRIPOS>BOND
     1     1     2 1
     2     1    19 1
     3     1    23 1
     4     1    24 1
     5     2     3 1
     6     2    25 1
     7     2    26 1
     8     3     8 1
     9     3    27 1
    10     3    28 1
    11     4     5 1
    12     4    29 1
    13     4    30 1
    14     4    31 1
    15     5     6 1
    16     5    32 1
    17     5    33 1
    18     6     7 1
    19     6    34 1
    20     6    35 1
    21     7    11 1
    22     7    36 1
    23     7    37 1
    24     8     9 1
    25     8    10 1
    26     8    18 1
    27     9    38 1
    28     9    39 1
    29     9    40 1
    30    10    41 1
    31    10    42 1
    32    10    43 1
    33    11    12 1
    34    11    44 1
    35    11    45 1
    36    12    13 1
    37    12    46 1
    38    12    47 1
    39    13    14 1
    40    13    48 1
    41    13    49 1
    42    14    15 1
    43    14    50 1
    44    14    51 1
    45    15    16 1
    46    15    52 1
    47    15    53 1
    48    16    17 1
    49    16    54 1
    50    16    55 1
    51    17    18 1
    52    17    56 1
    53    17    57 1
    54    18    58 1
    55    18    59 1
    56    19    20 1
    57    19    21 1
    58    19    22 1
@<TRIPOS>SUBSTRUCTURE
     1 C15         1 TEMP              0 ****  ****    0 ROOT
