@<TRIPOS>MOLECULE
C16
   30    32     1     0     0
SMALL
bcc


@<TRIPOS>ATOM
      1 N41         -1.2790     0.0190    -2.2250 n1         1 C16      -0.381800
      2 C39         -0.7180     0.0010    -1.2390 cg         1 C16       0.231800
      3 C32          0.0000     0.0000     0.0000 ca         1 C16       0.034000
      4 C30          1.3980     0.0000     0.0000 ca         1 C16      -0.056500
      5 C28          2.0850     0.0000     1.1930 ca         1 C16      -0.162000
      6 C34         -0.6950     0.0050     1.2130 ca         1 C16      -0.056500
      7 C36         -0.0010     0.0050     2.4020 ca         1 C16      -0.162000
      8 C26          1.3900    -0.0010     2.3980 ca         1 C16      -0.108400
      9 N19          2.0910    -0.0010     3.6070 n          1 C16       0.037400
     10 C21          1.5130    -0.0020     4.8220 c          1 C16       0.648100
     11 O23          0.3180    -0.0030     5.0380 o          1 C16      -0.597500
     12 C6           2.5760    -0.0030     5.8490 ca         1 C16      -0.159600
     13 C4           2.5820    -0.0040     7.2350 ca         1 C16      -0.023000
     14 C2           3.7890    -0.0060     7.9160 ca         1 C16      -0.087000
     15 C15          3.4320    -0.0070     3.7100 c          1 C16       0.653100
     16 O17          4.2140    -0.0120     2.7810 o          1 C16      -0.604500
     17 C8           3.7950    -0.0040     5.1420 ca         1 C16      -0.188600
     18 C10          4.9940    -0.0040     5.8370 ca         1 C16       0.000700
     19 C13          6.3020    -0.0040     5.0890 c3         1 C16       0.039200
     20 C1           4.9850    -0.0050     7.2230 ca         1 C16      -0.110000
     21 H30          1.7540     0.2730    -0.9860 ha         1 C16       0.128000
     22 H28          3.1520     0.0740     1.0190 ha         1 C16       0.176000
     23 H34         -1.6940     0.0780     1.6240 ha         1 C16       0.128000
     24 H36         -0.1590    -0.1850     3.4570 ha         1 C16       0.176000
     25 H4           1.8600    -0.6590     7.7080 ha         1 C16       0.118000
     26 H2           3.9280    -0.2910     8.9520 ha         1 C16       0.111000
     27 H13          6.4970     1.0490     5.2540 hc         1 C16       0.033033
     28 H13A         6.9900    -0.6580     5.6110 hc         1 C16       0.033033
     29 H13B         6.0870    -0.4160     4.1100 hc         1 C16       0.033033
     30 H1           5.7930    -0.2650     7.8960 ha         1 C16       0.117000
@<TRIPOS>BOND
     1     1     2 3   
     2     2     3 1   
     3     3     4 ar  
     4     3     6 ar  
     5     4     5 ar  
     6     4    21 1   
     7     5     8 ar  
     8     5    22 1   
     9     6     7 ar  
    10     6    23 1   
    11     7     8 ar  
    12     7    24 1   
    13     8     9 1   
    14     9    10 1   
    15     9    15 1   
    16    10    11 2   
    17    10    12 1   
    18    12    13 ar  
    19    12    17 ar  
    20    13    14 ar  
    21    13    25 1   
    22    14    20 ar  
    23    14    26 1   
    24    15    16 2   
    25    15    17 1   
    26    17    18 ar  
    27    18    19 1   
    28    18    20 ar  
    29    19    27 1   
    30    19    28 1   
    31    19    29 1   
    32    20    30 1   
@<TRIPOS>SUBSTRUCTURE
     1 C16         1 TEMP              0 ****  ****    0 ROOT
