@<TRIPOS>MOLECULE
molecule
   33    35     1     0     0
SMALL
bcc


@<TRIPOS>ATOM
      1 O2C          0.0000     0.0000     0.0000 o          1 C17      -0.540500
      2 C2           1.2180     0.0000     0.0000 c          1 C17       0.731800
      3 O1           1.9100     0.0000     1.1610 os         1 C17      -0.312200
      4 C9           2.9930     0.8100     1.2150 ca         1 C17       0.189100
      5 C10          3.6930     1.1220     0.0350 ca         1 C17      -0.182800
      6 C4           3.2230     0.5670    -1.2460 cc         1 C17      -0.088400
      7 C4C          4.0600     0.6180    -2.4630 c          1 C17       0.582100
      8 O4C          5.1580     1.1220    -2.4200 o          1 C17      -0.510100
      9 C3           1.9690    -0.0050    -1.2610 cd         1 C17      -0.214200
     10 C8           3.4250     1.3350     2.4240 ca         1 C17      -0.184000
     11 C7           4.5390     2.1570     2.4580 ca         1 C17       0.189100
     12 C6           5.2310     2.4590     1.2860 ca         1 C17      -0.250000
     13 C5           4.8170     1.9510     0.0870 ca         1 C17      -0.028000
     14 O7C          4.9610     2.6720     3.6410 os         1 C17      -0.315900
     15 C7B          6.1160     3.5120     3.6070 c3         1 C17       0.187700
     16 C1B          6.4330     3.9860     5.0030 ca         1 C17      -0.090300
     17 C6B          7.2780     3.2460     5.8090 ca         1 C17      -0.102000
     18 C5B          7.5690     3.6820     7.0890 ca         1 C17      -0.122000
     19 C4B          7.0150     4.8560     7.5620 ca         1 C17      -0.109000
     20 C3B          6.1690     5.5960     6.7560 ca         1 C17       0.025400
     21 Cl3          5.4740     7.0710     7.3500 cl         1 C17      -0.102400
     22 C2B          5.8820     5.1630     5.4730 ca         1 C17      -0.097000
     23 H3           1.6990    -0.6960    -2.0510 ha         1 C17       0.169000
     24 H8           2.8920     1.1030     3.3380 ha         1 C17       0.168000
     25 H5           5.3580     2.1900    -0.8200 ha         1 C17       0.177000
     26 H6           6.1010     3.1030     1.3260 ha         1 C17       0.143000
     27 H7B1         6.9580     2.9530     3.2160 h1         1 C17       0.047200
     28 H7B2         5.9230     4.3670     2.9710 h1         1 C17       0.047200
     29 H6B          7.7130     2.3260     5.4380 ha         1 C17       0.139000
     30 H2B          5.2200     5.7420     4.8410 ha         1 C17       0.149000
     31 H5B          8.2310     3.1020     7.7210 ha         1 C17       0.141000
     32 H4B          7.2430     5.1970     8.5650 ha         1 C17       0.147000
     33 H4'          3.6820     0.2210    -3.3970 h4         1 C17       0.015200
@<TRIPOS>BOND
     1     1     2 2
     2     2     3 1
     3     2     9 1
     4     3     4 1
     5     4     5 ar
     6     4    10 ar
     7     5     6 1
     8     5    13 ar
     9     6     7 1
    10     6     9 2
    11     7     8 2
    12     7    33 1
    13     9    23 1
    14    10    11 ar
    15    10    24 1
    16    11    12 ar
    17    11    14 1
    18    12    13 ar
    19    12    26 1
    20    13    25 1
    21    14    15 1
    22    15    16 1
    23    15    27 1
    24    15    28 1
    25    16    17 ar
    26    16    22 ar
    27    17    18 ar
    28    17    29 1
    29    18    19 ar
    30    18    31 1
    31    19    20 ar
    32    19    32 1
    33    20    21 1
    34    20    22 ar
    35    22    30 1
@<TRIPOS>SUBSTRUCTURE
     1 C17         1 TEMP              0 ****  ****    0 ROOT
