@<TRIPOS>MOLECULE
C17
   33    35     1     0     0
SMALL
bcc


@<TRIPOS>ATOM
      1 O2C        -0.1150   -0.0940    0.0970 o         1 C17     -0.553500
      2 C2          1.0540    0.2550   -0.0610 c         1 C17      0.717800
      3 O1          1.5650    0.8470    1.0910 os        1 C17     -0.317200
      4 C9          2.8720    1.2900    1.0830 ca        1 C17      0.181100
      5 C10         3.7180    1.1700   -0.0440 ca        1 C17     -0.171800
      6 C4          3.1790    0.5620   -1.2380 cc        1 C17     -0.046400
      7 C4C         3.9820    0.4060   -2.4770 c         1 C17      0.569100
      8 O4C         5.1980    0.2270   -2.5020 o         1 C17     -0.500100
      9 C3          1.8950    0.1300   -1.2430 cd        1 C17     -0.223200
     10 C8          3.3080    1.8710    2.2810 ca        1 C17     -0.187000
     11 C7          4.6270    2.3410    2.3460 ca        1 C17      0.180100
     12 C6          5.4910    2.2290    1.2400 ca        1 C17     -0.232000
     13 C5          5.0340    1.6500    0.0670 ca        1 C17     -0.028000
     14 O7C         4.9710    2.9050    3.5540 os        1 C17     -0.317900
     15 C7B         6.3380    3.3340    3.6800 c3        1 C17      0.174700
     16 C1B         6.5140    3.8730    5.0610 ca        1 C17     -0.089300
     17 C6B         7.7600    3.7430    5.6850 ca        1 C17     -0.122000
     18 C5B         7.9600    4.2740    6.9580 ca        1 C17     -0.121000
     19 C4B         6.9230    4.9290    7.6210 ca        1 C17     -0.117000
     20 C3B         5.6780    5.0500    6.9960 ca        1 C17      0.015400
     21 CL3         4.4060    5.8430    7.7980 cl        1 C17     -0.088400
     22 C2B         5.4670    4.5260    5.7170 ca        1 C17     -0.096000
     23 H3          1.4180   -0.3380   -2.1180 ha        1 C17      0.171000
     24 H8          2.6320    1.9540    3.1440 ha        1 C17      0.178000
     25 H5          5.7200    1.5560   -0.7930 ha        1 C17      0.164000
     26 H6          6.5260    2.5940    1.2940 ha        1 C17      0.147000
     27 H7B1        7.0190    2.4600    3.4970 h1        1 C17      0.054700
     28 H7B2        6.5390    4.1400    2.9220 h1        1 C17      0.054700
     29 H6B         8.5820    3.2210    5.1720 ha        1 C17      0.136000
     30 H2B         4.4840    4.6130    5.2270 ha        1 C17      0.163000
     31 H5B         8.9410    4.1740    7.4460 ha        1 C17      0.140000
     32 H4B         7.0840    5.3450    8.6270 ha        1 C17      0.149000
     33 H4'         3.3800    0.4510   -3.4140 h4        1 C17      0.015200
@<TRIPOS>BOND
     1    1    2 2   
     2    2    3 1   
     3    2    9 1   
     4    3    4 1   
     5    4    5 ar  
     6    4   10 ar  
     7    5    6 1   
     8    5   13 ar  
     9    6    7 1   
    10    6    9 2   
    11    7    8 2   
    12    7   33 1   
    13    9   23 1   
    14   10   11 ar  
    15   10   24 1   
    16   11   12 ar  
    17   11   14 1   
    18   12   13 ar  
    19   12   26 1   
    20   13   25 1   
    21   14   15 1   
    22   15   16 1   
    23   15   27 1   
    24   15   28 1   
    25   16   17 ar  
    26   16   22 ar  
    27   17   18 ar  
    28   17   29 1   
    29   18   19 ar  
    30   18   31 1   
    31   19   20 ar  
    32   19   32 1   
    33   20   21 1   
    34   20   22 ar  
    35   22   30 1   
@<TRIPOS>SUBSTRUCTURE
     1 C17         1 TEMP              0 ****  ****    0 ROOT
