@<TRIPOS>MOLECULE
C18
   39    41     1     0     0
SMALL
bcc


@<TRIPOS>ATOM
      1 O2C          0.0000     0.0000     0.0000 o          1 C18      -0.627500
      2 C2           1.2180     0.0000     0.0000 c          1 C18       0.793800
      3 O1           1.8730     0.0000     1.1720 os         1 C18      -0.274200
      4 C9           3.2210    -0.0000     1.2260 ca         1 C18       0.212100
      5 C10          3.9710    -0.0020     0.0350 ca         1 C18      -0.200800
      6 C4           3.2640    -0.0020    -1.2480 cc         1 C18       0.047600
      7 N4C          4.3740     1.3750    -2.9130 n7         1 C18      -0.581200
      8 C4C          4.0220    -0.0040    -2.5500 c3         1 C18       0.180000
      9 C4N          5.1160     1.4130    -4.1810 c3         1 C18       0.178100
     10 C3           1.9050    -0.0070    -1.2320 cd         1 C18      -0.275200
     11 C8           3.8820     0.0000     2.4450 ca         1 C18      -0.183000
     12 C7           5.2660    -0.0000     2.4780 ca         1 C18       0.204100
     13 C6           6.0020    -0.0010     1.2950 ca         1 C18      -0.246000
     14 C5           5.3690    -0.0020     0.0860 ca         1 C18       0.014000
     15 O7C          5.9120     0.0000     3.6730 os         1 C18      -0.295900
     16 C7B          7.3400     0.0000     3.6380 c3         1 C18       0.263700
     17 C1B          7.8760     0.0020     5.0470 ca         1 C18      -0.106300
     18 C6B          8.1170     1.1990     5.6940 ca         1 C18      -0.074000
     19 C5B          8.6080     1.2010     6.9860 ca         1 C18      -0.093000
     20 C4B          8.8600     0.0060     7.6320 ca         1 C18      -0.087000
     21 C3B          8.6190    -1.1930     6.9850 ca         1 C18      -0.038600
     22 Cl3          8.9340    -2.6950     7.7960 cl         1 C18      -0.022400
     23 C2B          8.1210    -1.1940     5.6940 ca         1 C18      -0.073000
     24 H3           1.3530    -0.0950    -2.1600 ha         1 C18       0.140000
     25 H4C1         4.9260    -0.5910    -2.4410 h1         1 C18       0.018200
     26 H4C2         3.4030    -0.4350    -3.3270 h1         1 C18       0.018200
     27 H4C          3.5400     1.9210    -2.9990 hn         1 C18       0.258800
     28 H4N1         5.9880     0.7740    -4.1080 h1         1 C18       0.000700
     29 H4N2         5.4300     2.4290    -4.3860 h1         1 C18       0.000700
     30 H4N3         4.4780     1.0630    -4.9840 h1         1 C18       0.000700
     31 H5           5.9470    -0.0030    -0.8300 ha         1 C18       0.117000
     32 H6           7.0850    -0.0010     1.3360 ha         1 C18       0.126000
     33 H8           3.3170     0.0010     3.3690 ha         1 C18       0.139000
     34 H7B1         7.6890    -0.8840     3.1200 h1         1 C18       0.007700
     35 H7B2         7.6890     0.8850     3.1180 h1         1 C18       0.007700
     36 H2B          7.9320    -2.1330     5.1870 ha         1 C18       0.118000
     37 H6B          7.9200     2.1370     5.1880 ha         1 C18       0.109000
     38 H5B          8.7970     2.1410     7.4920 ha         1 C18       0.109000
     39 H4B          9.2450     0.0090     8.6450 ha         1 C18       0.115000
@<TRIPOS>BOND
     1     1     2 2   
     2     2     3 1   
     3     2    10 1   
     4     3     4 1   
     5     4     5 ar  
     6     4    11 ar  
     7     5     6 1   
     8     5    14 ar  
     9     6     8 1   
    10     6    10 2   
    11     7     8 1   
    12     7     9 1   
    13     7    27 1   
    14     8    25 1   
    15     8    26 1   
    16     9    28 1   
    17     9    29 1   
    18     9    30 1   
    19    10    24 1   
    20    11    12 ar  
    21    11    33 1   
    22    12    13 ar  
    23    12    15 1   
    24    13    14 ar  
    25    13    32 1   
    26    14    31 1   
    27    15    16 1   
    28    16    17 1   
    29    16    34 1   
    30    16    35 1   
    31    17    18 ar  
    32    17    23 ar  
    33    18    19 ar  
    34    18    37 1   
    35    19    20 ar  
    36    19    38 1   
    37    20    21 ar  
    38    20    39 1   
    39    21    22 1   
    40    21    23 ar  
    41    23    36 1   
@<TRIPOS>SUBSTRUCTURE
     1 C18         1 TEMP              0 ****  ****    0 ROOT
