@<TRIPOS>MOLECULE
C19
   53    57     1     0     0
SMALL
bcc


@<TRIPOS>ATOM
      1 N1           0.0000     0.0000     0.0000 nb         1 C19      -0.634000
      2 C2           1.3170     0.0000     0.0000 ca         1 C19       0.469200
      3 C3           1.9890     0.0000     1.2370 ca         1 C19      -0.282600
      4 C4           1.2150     0.0010     2.4260 ca         1 C19       0.402600
      5 N5          -0.1200     0.0010     2.3230 nb         1 C19      -0.618000
      6 C6          -0.6950     0.0010     1.1360 ca         1 C19       0.704900
      7 C8           3.3870     0.0010     1.3200 ca         1 C19      -0.036000
      8 C9           3.9930     0.0010     2.5660 ca         1 C19      -0.009800
      9 C10          3.2160     0.0030     3.7360 ca         1 C19      -0.071000
     10 C11          1.8590     0.0010     3.6730 ca         1 C19      -0.155300
     11 N15         -2.0770     0.0010     1.0670 nv         1 C19      -0.637500
     12 C16          5.4710     0.0010     2.6650 cc         1 C19      -0.185400
     13 C17          6.2230    -1.1030     2.1940 c          1 C19       0.587700
     14 N18          7.5660    -1.0880     2.2900 n          1 C19       0.253800
     15 C19          8.2160    -0.0270     2.8350 cc         1 C19      -0.133400
     16 C20          7.5360     1.0490     3.2970 cd         1 C19      -0.211000
     17 C21          6.1400     1.0850     3.2140 cd         1 C19       0.009800
     18 C22          5.3740     2.2790     3.7200 c3         1 C19       0.045100
     19 O26          5.6550    -2.0640     1.7020 o          1 C19      -0.691500
     20 C27          8.3030    -2.1830     1.8230 ca         1 C19      -0.117400
     21 C28          8.7420    -2.2130     0.5060 ca         1 C19      -0.100000
     22 C29          9.4680    -3.2950     0.0490 ca         1 C19      -0.047000
     23 C30          9.7580    -4.3470     0.8970 ca         1 C19      -0.124300
     24 C31          9.3240    -4.3310     2.2140 ca         1 C19       0.015600
     25 C32          8.5960    -3.2340     2.6760 ca         1 C19      -0.082000
     26 C36         10.5200    -5.6320     0.6580 c3         1 C19      -0.021700
     27 C37         10.4770    -6.3640     2.0100 c3         1 C19       0.133800
     28 N38          9.7190    -5.4820     2.9010 nu         1 C19      -0.393600
     29 C41         11.9660    -5.3270     0.2590 c3         1 C19       0.013400
     30 C45          9.8350    -6.4670    -0.4240 c3         1 C19       0.013400
     31 H2           1.8710    -0.0010    -0.9310 h4         1 C19      -0.014900
     32 H8           3.9890    -0.0000     0.4190 ha         1 C19       0.116000
     33 H10          3.7060     0.0030     4.7020 ha         1 C19       0.107000
     34 H11          1.2740     0.0020     4.5850 ha         1 C19       0.119000
     35 HN15        -2.5830    -0.8570     1.1630 hn         1 C19       0.278300
     36 HN1A        -2.5710     0.8630     0.9470 hn         1 C19       0.278300
     37 H19          9.2980    -0.0420     2.9030 h4         1 C19       0.131000
     38 H20          8.0740     1.8860     3.7260 ha         1 C19       0.126000
     39 H22          4.6420     2.5790     2.9800 hc         1 C19       0.016700
     40 H22A         6.0600     3.0980     3.9020 hc         1 C19       0.016700
     41 H22B         4.8690     2.0200     4.6430 hc         1 C19       0.016700
     42 H28          8.4510    -1.4270    -0.1800 ha         1 C19       0.114000
     43 H29          9.8120    -3.3200    -0.9790 ha         1 C19       0.108000
     44 H32          8.2600    -3.2040     3.7060 ha         1 C19       0.116000
     45 H37         11.4840    -6.4850     2.3900 h1         1 C19       0.029200
     46 H37A         9.9510    -7.3040     1.8970 h1         1 C19       0.029200
     47 HN38         8.9090    -5.9640     3.2370 hn         1 C19       0.260800
     48 H41         12.4100    -4.6630     0.9920 hc         1 C19       0.008700
     49 H41A        11.9790    -4.8510    -0.7140 hc         1 C19       0.008700
     50 H41B        12.5310    -6.2500     0.2180 hc         1 C19       0.008700
     51 H45          8.7850    -6.5800    -0.1820 hc         1 C19       0.008700
     52 H45A        10.3010    -7.4440    -0.4750 hc         1 C19       0.008700
     53 H45B         9.9330    -5.9700    -1.3810 hc         1 C19       0.008700
@<TRIPOS>BOND
     1     1     2 ar  
     2     1     6 ar  
     3     2     3 ar  
     4     2    31 1   
     5     3     4 ar  
     6     3     7 ar  
     7     4     5 ar  
     8     4    10 ar  
     9     5     6 ar  
    10     6    11 1   
    11     7     8 ar  
    12     7    32 1   
    13     8     9 ar  
    14     8    12 1   
    15     9    10 ar  
    16     9    33 1   
    17    10    34 1   
    18    11    35 1   
    19    11    36 1   
    20    12    13 1   
    21    12    17 2   
    22    13    14 1   
    23    13    19 2   
    24    14    15 1   
    25    14    20 1   
    26    15    16 2   
    27    15    37 1   
    28    16    17 1   
    29    16    38 1   
    30    17    18 1   
    31    18    39 1   
    32    18    40 1   
    33    18    41 1   
    34    20    21 ar  
    35    20    25 ar  
    36    21    22 ar  
    37    21    42 1   
    38    22    23 ar  
    39    22    43 1   
    40    23    24 ar  
    41    23    26 1   
    42    24    25 ar  
    43    24    28 1   
    44    25    44 1   
    45    26    27 1   
    46    26    29 1   
    47    26    30 1   
    48    27    28 1   
    49    27    45 1   
    50    27    46 1   
    51    28    47 1   
    52    29    48 1   
    53    29    49 1   
    54    29    50 1   
    55    30    51 1   
    56    30    52 1   
    57    30    53 1   
@<TRIPOS>SUBSTRUCTURE
     1 C19         1 TEMP              0 ****  ****    0 ROOT
