@<TRIPOS>MOLECULE
molecule
   48    48     1     0     0
SMALL
bcc


@<TRIPOS>ATOM
      1 C1           0.0000     0.0000     0.0000 c3         1 C1A      -0.055300
      2 C2           1.5070     0.0000     0.0000 ca         1 C1A      -0.065800
      3 C3           2.1980     0.0000     1.1970 ca         1 C1A      -0.106500
      4 C4           3.5800     0.0000     1.1970 ca         1 C1A      -0.080800
      5 C5           4.3340     0.0020     2.5020 c3         1 C1A       0.013000
      6 S1           4.6370    -1.7050     3.0240 ss         1 C1A      -0.079800
      7 C6           5.5050    -1.4140     4.5290 c2         1 C1A       0.618100
      8 N1           5.7340    -0.1940     4.9250 n2         1 C1A      -0.791600
      9 N2           5.9450    -2.4800     5.2900 nu         1 C1A      -0.787700
     10 C7           5.8060    -3.7670     4.8170 c2         1 C1A       0.822100
     11 N3           5.3620    -3.9740     3.6100 n2         1 C1A      -0.989600
     12 N4           6.1380    -4.8330     5.6190 nz         1 C1A      -0.822600
     13 C8           4.2710     0.0000    -0.0000 ca         1 C1A      -0.065800
     14 C9           5.7780     0.0000    -0.0000 c3         1 C1A      -0.055300
     15 C10          3.5800    -0.0010    -1.1980 ca         1 C1A      -0.106500
     16 C11          2.1980    -0.0050    -1.1980 ca         1 C1A      -0.080800
     17 C12          1.4440    -0.0110    -2.5020 c3         1 C1A       0.013000
     18 S2           1.1410     1.6920    -3.0330 ss         1 C1A      -0.079800
     19 C13          0.2730     1.3960    -4.5370 c2         1 C1A       0.618100
     20 N5           0.0450     0.1730    -4.9260 n2         1 C1A      -0.791600
     21 N6          -0.1660     2.4570    -5.3010 nu         1 C1A      -0.787700
     22 C14          0.1740     3.7470    -4.9500 c2         1 C1A       0.822100
     23 N7           0.9970     3.9580    -3.9630 n2         1 C1A      -0.989600
     24 N8          -0.3550     4.8100    -5.6430 nz         1 C1A      -0.822600
     25 H51          3.7490     0.5120     3.2570 h1         1 C1A       0.093450
     26 H52          5.2800     0.5130     2.3720 h1         1 C1A       0.093450
     27 HN1          6.2280    -0.0290     5.7800 hn         1 C1A       0.420900
     28 HN2          6.4110    -2.3140     6.1600 hn         1 C1A       0.451800
     29 HN3          4.3800    -4.0780     3.4480 hn         1 C1A       0.551400
     30 HN41         5.8880    -4.6290     6.5670 hn         1 C1A       0.471800
     31 HN42         7.1230    -5.0000     5.5630 hn         1 C1A       0.471800
     32 H91          6.1390    -0.0290    -1.0210 hc         1 C1A       0.052367
     33 H92          6.1390    -0.8690     0.5360 hc         1 C1A       0.052367
     34 H93          6.1390     0.8990     0.4840 hc         1 C1A       0.052367
     35 H10          4.1220    -0.0020    -2.1360 ha         1 C1A       0.142500
     36 H121         0.4970    -0.5220    -2.3700 h1         1 C1A       0.093450
     37 H122         2.0290    -0.5260    -3.2550 h1         1 C1A       0.093450
     38 HN5         -0.4480     0.0040    -5.7800 hn         1 C1A       0.420900
     39 HN6         -0.7500     2.2920    -6.0970 hn         1 C1A       0.451800
     40 HN7          1.9810     4.0130    -4.1340 hn         1 C1A       0.551400
     41 HN81        -0.1300     5.6620    -5.1690 hn         1 C1A       0.471800
     42 HN82        -1.3500     4.7110    -5.6970 hn         1 C1A       0.471800
     43 H1          -0.3610     0.8470    -0.5710 hc         1 C1A       0.052367
     44 H20         -0.3610    -0.9180    -0.4480 hc         1 C1A       0.052367
     45 H21         -0.3610     0.0710     1.0190 hc         1 C1A       0.052367
     46 H31          1.6560     0.0140     2.1350 ha         1 C1A       0.142500
     47 H43          5.6190    -5.6400     5.3330 hn         1 C1A       0.471800
     48 H83          0.0510     4.8480    -6.5570 hn         1 C1A       0.471800
@<TRIPOS>BOND
     1     1     2 1
     2     2     3 ar
     3     2    16 ar
     4     3     4 ar
     5     4     5 1
     6     4    13 ar
     7     5     6 1
     8     5    25 1
     9     5    26 1
    10     6     7 1
    11     7     8 2
    12     7     9 1
    13     8    27 1
    14     9    10 1
    15     9    28 1
    16    10    11 2
    17    10    12 1
    18    11    29 1
    19    12    30 1
    20    12    31 1
    21    13    14 1
    22    13    15 ar
    23    14    32 1
    24    14    33 1
    25    14    34 1
    26    15    16 ar
    27    15    35 1
    28    16    17 1
    29    17    18 1
    30    17    36 1
    31    17    37 1
    32    18    19 1
    33    19    20 2
    34    19    21 1
    35    20    38 1
    36    21    22 1
    37    21    39 1
    38    22    23 2
    39    22    24 1
    40    23    40 1
    41    24    41 1
    42    24    42 1
    43     1    43 1
    44     1    44 1
    45     1    45 1
    46     3    46 1
    47    47    12 1
    48    48    24 1
@<TRIPOS>SUBSTRUCTURE
     1 C1A         1 TEMP              0 ****  ****    0 ROOT
