@<TRIPOS>MOLECULE
C1A
   48    48     1     0     0
SMALL
bcc


@<TRIPOS>ATOM
      1 C1           0.0000     0.0000     0.0000 c3         1 C1A       0.049700
      2 C2           1.5070     0.0000     0.0000 ca         1 C1A      -0.068300
      3 C3           2.1980     0.0000     1.1970 ca         1 C1A      -0.073000
      4 C4           3.5800     0.0000     1.1970 ca         1 C1A      -0.074800
      5 C5           4.3340     0.0020     2.5020 c3         1 C1A       0.099000
      6 S1           4.6370    -1.7050     3.0240 ss         1 C1A      -0.263300
      7 C6           5.5050    -1.4140     4.5290 c2         1 C1A       0.443600
      8 N1           5.7340    -0.1940     4.9250 n2         1 C1A      -0.656600
      9 N2           5.9450    -2.4800     5.2900 nu         1 C1A      -0.259200
     10 C7           5.8060    -3.7670     4.8170 c2         1 C1A       0.219100
     11 N3           5.3620    -3.9740     3.6100 n2         1 C1A      -0.535100
     12 N4           6.1380    -4.8330     5.6190 nz         1 C1A       0.127900
     13 C8           4.2710     0.0000    -0.0000 ca         1 C1A      -0.068300
     14 C9           5.7780     0.0000    -0.0000 c3         1 C1A       0.049700
     15 C10          3.5800    -0.0010    -1.1980 ca         1 C1A      -0.073000
     16 C11          2.1980    -0.0050    -1.1980 ca         1 C1A      -0.074800
     17 C12          1.4440    -0.0110    -2.5020 c3         1 C1A       0.099000
     18 S2           1.1410     1.6920    -3.0330 ss         1 C1A      -0.263300
     19 C13          0.2730     1.3960    -4.5370 c2         1 C1A       0.443600
     20 N5           0.0450     0.1730    -4.9260 n2         1 C1A      -0.656600
     21 N6          -0.1660     2.4570    -5.3010 nu         1 C1A      -0.259200
     22 C14          0.1740     3.7470    -4.9500 c2         1 C1A       0.219100
     23 N7           0.9970     3.9580    -3.9630 n2         1 C1A      -0.535100
     24 N8          -0.3550     4.8100    -5.6430 nz         1 C1A       0.127900
     25 H51          5.2800     0.5130     2.3720 h1         1 C1A       0.053950
     26 H52          3.7490     0.5120     3.2570 h1         1 C1A       0.053950
     27 HN1          5.4160     0.5790     4.3740 hn         1 C1A       0.366400
     28 HN2          6.3790    -2.3160     6.1760 hn         1 C1A       0.299800
     29 HN3          5.2610    -4.9080     3.2660 hn         1 C1A       0.349400
     30 HN41         5.9140    -4.6180     6.5710 hn         1 C1A       0.230633
     31 HN42         5.6230    -5.6420     5.3300 hn         1 C1A       0.230633
     32 H91          6.1390     0.9190     0.4450 hc         1 C1A       0.018033
     33 H92          6.1390    -0.0730    -1.0190 hc         1 C1A       0.018033
     34 H93          6.1390    -0.8450     0.5730 hc         1 C1A       0.018033
     35 H10          4.1220    -0.0020    -2.1360 ha         1 C1A       0.119500
     36 H121         2.0290    -0.5260    -3.2550 h1         1 C1A       0.053950
     37 H122         0.4970    -0.5220    -2.3700 h1         1 C1A       0.053950
     38 HN5          0.3630    -0.5970    -4.3710 hn         1 C1A       0.366400
     39 HN6         -0.7520     2.2920    -6.0950 hn         1 C1A       0.299800
     40 HN7          1.2440     4.8940    -3.7070 hn         1 C1A       0.349400
     41 HN81        -0.5540     4.5300    -6.5830 hn         1 C1A       0.230633
     42 HN82         0.3030     5.5630    -5.6520 hn         1 C1A       0.230633
     43 H1          -0.3610     0.0890     1.0170 hc         1 C1A       0.018033
     44 H20         -0.3610    -0.9260    -0.4320 hc         1 C1A       0.018033
     45 H21         -0.3610     0.8370    -0.5860 hc         1 C1A       0.018033
     46 H31          1.6560     0.0030     2.1350 ha         1 C1A       0.119500
     47 H43          7.1120    -5.0380     5.5160 hn         1 C1A       0.230633
     48 H83         -1.1860     5.1270    -5.1840 hn         1 C1A       0.230633
@<TRIPOS>BOND
     1     1     2 1   
     2     1    43 1   
     3     1    44 1   
     4     1    45 1   
     5     2     3 ar  
     6     2    16 ar  
     7     3     4 ar  
     8     3    46 1   
     9     4     5 1   
    10     4    13 ar  
    11     5     6 1   
    12     5    25 1   
    13     5    26 1   
    14     6     7 1   
    15     7     8 2   
    16     7     9 1   
    17     8    27 1   
    18     9    10 1   
    19     9    28 1   
    20    10    11 2   
    21    10    12 1   
    22    11    29 1   
    23    12    30 1   
    24    12    31 1   
    25    12    47 1   
    26    13    14 1   
    27    13    15 ar  
    28    14    32 1   
    29    14    33 1   
    30    14    34 1   
    31    15    16 ar  
    32    15    35 1   
    33    16    17 1   
    34    17    18 1   
    35    17    36 1   
    36    17    37 1   
    37    18    19 1   
    38    19    20 2   
    39    19    21 1   
    40    20    38 1   
    41    21    22 1   
    42    21    39 1   
    43    22    23 2   
    44    22    24 1   
    45    23    40 1   
    46    24    41 1   
    47    24    42 1   
    48    24    48 1   
@<TRIPOS>SUBSTRUCTURE
     1 C1A         1 TEMP              0 ****  ****    0 ROOT
