@<TRIPOS>MOLECULE
C1B
   63    66     1     0     0
SMALL
bcc


@<TRIPOS>ATOM
      1 C1           0.0000     0.0000     0.0000 ca         1 C1B      -0.329900
      2 C2           1.4260     0.0000     0.0000 ca         1 C1B      -0.149000
      3 C3           2.1660     0.0000     1.1850 ca         1 C1B      -0.006000
      4 C4           1.4520    -0.0020     2.3410 ca         1 C1B       0.119400
      5 C5           0.1230    -0.0040     2.3870 ca         1 C1B      -0.319200
      6 C6          -0.6550    -0.0030     1.2520 ca         1 C1B       0.014000
      7 C7          -0.7080     0.0040    -1.1990 ce         1 C1B       0.234800
      8 N1          -1.9590    -0.3890    -1.1800 n2         1 C1B      -0.560100
      9 N2          -0.1000     0.3960    -2.3060 nz         1 C1B       0.224400
     10 N3           1.8680    -0.0010     3.5630 nc         1 C1B      -0.512100
     11 N4          -0.3420    -0.0030     3.6270 na         1 C1B       0.352700
     12 C8           0.8000    -0.0030     4.2980 cd         1 C1B       0.372400
     13 C1'          0.8280    -0.0090     5.7010 ca         1 C1B      -0.259900
     14 C2'         -0.3530     0.0010     6.4320 ca         1 C1B      -0.034000
     15 C3'         -0.3620    -0.0030     7.8150 ca         1 C1B       0.023700
     16 CVX         -1.7070     0.0660     8.5500 c3         1 C1B      -0.130400
     17 CWX         -1.5930     1.2060     9.6160 c          1 C1B       1.026600
     18 OXX         -1.6070     0.9350    10.8040 o          1 C1B      -0.915300
     19 OYX         -1.4870     2.3450     9.1690 o          1 C1B      -0.915300
     20 C6X         -2.1400    -1.3580     9.0560 c3         1 C1B      -0.128400
     21 C7X         -2.6190    -2.3240     7.9120 c          1 C1B       1.014600
     22 O8X         -3.1920    -1.9140     6.9060 o          1 C1B      -0.914800
     23 O9X         -2.3920    -3.5050     8.0900 o          1 C1B      -0.914800
     24 C4'          0.8440    -0.0200     8.5130 ca         1 C1B      -0.013000
     25 C5'          2.0760    -0.0310     7.8470 cp         1 C1B      -0.141000
     26 C6'          2.0370    -0.0230     6.4320 ca         1 C1B       0.190100
     27 O6'          3.2080    -0.0360     5.6940 oh         1 C1B      -0.478100
     28 C1B          3.2700    -0.0460     8.5820 cp         1 C1B       0.024000
     29 C2B          4.3560    -0.8290     8.2020 ca         1 C1B       0.172100
     30 C3B          5.5300    -0.8240     8.9000 ca         1 C1B      -0.186000
     31 C4B          5.6720    -0.0440    10.0140 ca         1 C1B      -0.069000
     32 C5B          4.6390     0.7460    10.4490 ca         1 C1B      -0.194300
     33 C51          4.8600     1.5920    11.7010 c3         1 C1B       0.120300
     34 N52          4.1210     2.8610    11.5060 ns         1 C1B      -0.091900
     35 C53          2.9720     3.0460    12.1180 c          1 C1B       0.277100
     36 O54          2.5010     2.2010    12.8550 o          1 C1B      -0.531100
     37 N55          2.2660     4.1430    11.9830 nz         1 C1B       0.223600
     38 C6B          3.4370     0.7450     9.7320 ca         1 C1B      -0.074000
     39 O2B          4.2980    -1.6770     7.1160 oh         1 C1B      -0.456100
     40 H2           1.9510     0.0020    -0.9470 ha         1 C1B       0.069000
     41 H3           3.2500    -0.0000     1.1820 ha         1 C1B       0.129000
     42 H6          -1.7360    -0.0030     1.3160 ha         1 C1B       0.112000
     43 HN1         -2.3800    -0.6800    -0.3200 hn         1 C1B       0.384400
     44 HN21        -0.7790     0.5320    -3.0290 hn         1 C1B       0.210467
     45 HN22         0.5560    -0.3030    -2.5930 hn         1 C1B       0.210467
     46 HN4         -1.2860    -0.0040     3.9610 hn         1 C1B       0.184700
     47 H2'         -1.2970     0.0120     5.9010 ha         1 C1B       0.118000
     48 H31'        -2.4500     0.3820     7.8280 hc         1 C1B       0.043700
     49 H421        -1.2980    -1.8150     9.5620 hc         1 C1B       0.011200
     50 H422        -2.9480    -1.2400     9.7680 hc         1 C1B       0.011200
     51 H4'          0.8280    -0.0240     9.5960 ha         1 C1B       0.129000
     52 H6'          3.5090     0.8480     5.5660 ho         1 C1B       0.383000
     53 H3B          6.3540    -1.4450     8.5700 ha         1 C1B       0.115000
     54 H4B          6.6090    -0.0500    10.5580 ha         1 C1B       0.097000
     55 H511         5.9160     1.7950    11.8270 h1         1 C1B       0.051700
     56 H512         4.4770     1.0710    12.5700 h1         1 C1B       0.051700
     57 H52          4.5440     3.6120    10.9970 hn         1 C1B       0.172500
     58 H551         2.7000     4.8850    12.4960 hn         1 C1B       0.246133
     59 H552         2.2170     4.3910    11.0150 hn         1 C1B       0.246133
     60 H6B          2.6180     1.3680    10.0710 ha         1 C1B       0.103000
     61 H2B          4.7010    -2.5000     7.3370 ho         1 C1B       0.397000
     62 H23          0.3880     1.2530    -2.1340 hn         1 C1B       0.210467
     63 H553         1.3400     3.9880    12.3290 hn         1 C1B       0.246133
@<TRIPOS>BOND
     1     1     2 ar  
     2     1     6 ar  
     3     1     7 1   
     4     2     3 ar  
     5     2    40 1   
     6     3     4 ar  
     7     3    41 1   
     8     4     5 ar  
     9     4    10 1   
    10     5     6 ar  
    11     5    11 1   
    12     6    42 1   
    13     7     8 2   
    14     7     9 1   
    15     8    43 1   
    16     9    44 1   
    17     9    45 1   
    18     9    62 1   
    19    10    12 2   
    20    11    12 1   
    21    11    46 1   
    22    12    13 1   
    23    13    14 ar  
    24    13    26 ar  
    25    14    15 ar  
    26    14    47 1   
    27    15    16 1   
    28    15    24 ar  
    29    16    17 1   
    30    16    20 1   
    31    16    48 1   
    32    17    18 1   
    33    17    19 1   
    34    20    21 1   
    35    20    49 1   
    36    20    50 1   
    37    21    22 1   
    38    21    23 1   
    39    24    25 ar  
    40    24    51 1   
    41    25    26 ar  
    42    25    28 1   
    43    26    27 1   
    44    27    52 1   
    45    28    29 ar  
    46    28    38 ar  
    47    29    30 ar  
    48    29    39 1   
    49    30    31 ar  
    50    30    53 1   
    51    31    32 ar  
    52    31    54 1   
    53    32    33 1   
    54    32    38 ar  
    55    33    34 1   
    56    33    55 1   
    57    33    56 1   
    58    34    35 1   
    59    34    57 1   
    60    35    36 2   
    61    35    37 1   
    62    37    58 1   
    63    37    59 1   
    64    37    63 1   
    65    38    60 1   
    66    39    61 1   
@<TRIPOS>SUBSTRUCTURE
     1 C1B         1 TEMP              0 ****  ****    0 ROOT
