@<TRIPOS>MOLECULE
molecule
   63    66     1     0     0
SMALL
bcc


@<TRIPOS>ATOM
      1 C1           0.0000     0.0000     0.0000 ca         1 C1B      -0.286900
      2 C2           1.4260     0.0000     0.0000 ca         1 C1B      -0.169000
      3 C3           2.1660     0.0000     1.1850 ca         1 C1B      -0.061000
      4 C4           1.4520    -0.0020     2.3410 ca         1 C1B       0.160400
      5 C5           0.1230    -0.0040     2.3870 ca         1 C1B      -0.146200
      6 C6          -0.6550    -0.0030     1.2520 ca         1 C1B       0.015000
      7 C7          -0.7080     0.0040    -1.1990 ce         1 C1B       0.552800
      8 N1          -1.9590    -0.3890    -1.1800 n2         1 C1B      -0.717100
      9 N2          -0.1000     0.3960    -2.3060 nz         1 C1B      -0.774600
     10 N3           1.8680    -0.0010     3.5630 nc         1 C1B      -0.591100
     11 N4          -0.3420    -0.0030     3.6270 na         1 C1B      -0.199300
     12 C8           0.8000    -0.0030     4.2980 cd         1 C1B       0.574400
     13 C1'          0.8280    -0.0090     5.7010 ca         1 C1B      -0.230900
     14 C2'         -0.3530     0.0010     6.4320 ca         1 C1B      -0.054000
     15 C3'         -0.3620    -0.0030     7.8150 ca         1 C1B       0.015700
     16 CVX         -1.7070     0.0660     8.5500 c3         1 C1B      -0.158400
     17 CWX         -1.5930     1.2060     9.6160 c          1 C1B       0.930600
     18 OXX         -1.6070     0.9350    10.8040 o          1 C1B      -0.858300
     19 OYX         -1.4870     2.3450     9.1690 o          1 C1B      -0.858300
     20 C6X         -2.1400    -1.3580     9.0560 c3         1 C1B      -0.183400
     21 C7X         -2.6190    -2.3240     7.9120 c          1 C1B       0.921600
     22 O8X         -3.1920    -1.9140     6.9060 o          1 C1B      -0.858800
     23 O9X         -2.3920    -3.5050     8.0900 o          1 C1B      -0.858800
     24 C4'          0.8440    -0.0200     8.5130 ca         1 C1B      -0.046000
     25 C5'          2.0760    -0.0310     7.8470 cp         1 C1B      -0.123000
     26 C6'          2.0370    -0.0230     6.4320 ca         1 C1B       0.164100
     27 O6'          3.2080    -0.0360     5.6940 oh         1 C1B      -0.498100
     28 C1B          3.2700    -0.0460     8.5820 cp         1 C1B       0.012000
     29 C2B          4.3560    -0.8290     8.2020 ca         1 C1B       0.160100
     30 C3B          5.5300    -0.8240     8.9000 ca         1 C1B      -0.203000
     31 C4B          5.6720    -0.0440    10.0140 ca         1 C1B      -0.100000
     32 C5B          4.6390     0.7460    10.4490 ca         1 C1B      -0.176300
     33 C51          4.8600     1.5920    11.7010 c3         1 C1B       0.174300
     34 N52          4.1210     2.8610    11.5060 ns         1 C1B      -0.537900
     35 C53          2.9720     3.0460    12.1180 c          1 C1B       0.581100
     36 O54          2.5010     2.2010    12.8550 o          1 C1B      -0.494100
     37 N55          2.2660     4.1430    11.9830 nz         1 C1B      -0.666400
     38 C6B          3.4370     0.7450     9.7320 ca         1 C1B      -0.090000
     39 O2B          4.2980    -1.6770     7.1160 oh         1 C1B      -0.473100
     40 H2           1.9510     0.0020    -0.9470 ha         1 C1B       0.085000
     41 H3           3.2500    -0.0000     1.1820 ha         1 C1B       0.165000
     42 H6          -1.7360    -0.0030     1.3160 ha         1 C1B       0.166000
     43 HN1         -2.4940    -0.3990    -2.0260 hn         1 C1B       0.408400
     44 HN21         0.4110     1.2380    -2.1270 hn         1 C1B       0.457800
     45 HN22         0.5310    -0.3180    -2.6120 hn         1 C1B       0.457800
     46 HN4         -1.2860    -0.0040     3.9610 hn         1 C1B       0.367700
     47 H2'         -1.2970     0.0110     5.9010 ha         1 C1B       0.147000
     48 H31'        -2.4500     0.3820     7.8280 hc         1 C1B       0.065700
     49 H421        -1.2990    -1.8150     9.5630 hc         1 C1B       0.035200
     50 H422        -2.9490    -1.2400     9.7680 hc         1 C1B       0.035200
     51 H4'          0.8280    -0.0240     9.5960 ha         1 C1B       0.159000
     52 H6'          3.5100     0.8480     5.5670 ho         1 C1B       0.399000
     53 H3B          6.3540    -1.4450     8.5700 ha         1 C1B       0.138000
     54 H4B          6.6090    -0.0500    10.5580 ha         1 C1B       0.120000
     55 H511         5.9160     1.7950    11.8270 h1         1 C1B       0.085700
     56 H512         4.4770     1.0710    12.5700 h1         1 C1B       0.085700
     57 H52          4.5430     3.6120    10.9960 hn         1 C1B       0.325500
     58 H551         1.3590     4.0080    12.3850 hn         1 C1B       0.482133
     59 H552         2.1710     4.3610    11.0110 hn         1 C1B       0.482133
     60 H6B          2.6180     1.3680    10.0710 ha         1 C1B       0.131000
     61 H2B          4.7020    -2.5000     7.3370 ho         1 C1B       0.416000
     62 H23         -0.7820     0.5730    -3.0170 hn         1 C1B       0.457800
     63 H553         2.7300     4.8980    12.4490 hn         1 C1B       0.482133
@<TRIPOS>BOND
     1     1     2 ar
     2     1     6 ar
     3     1     7 1
     4     2     3 ar
     5     2    40 1
     6     3     4 ar
     7     3    41 1
     8     4     5 ar
     9     4    10 1
    10     5     6 ar
    11     5    11 1
    12     6    42 1
    13     7     8 2
    14     7     9 1
    15     8    43 1
    16     9    44 1
    17     9    45 1
    18    10    12 2
    19    11    12 1
    20    11    46 1
    21    12    13 1
    22    13    14 ar
    23    13    26 ar
    24    14    15 ar
    25    14    47 1
    26    15    16 1
    27    15    24 ar
    28    16    17 1
    29    16    20 1
    30    16    48 1
    31    17    18 1
    32    17    19 1
    33    20    21 1
    34    20    49 1
    35    20    50 1
    36    21    22 1
    37    21    23 1
    38    24    25 ar
    39    24    51 1
    40    25    26 ar
    41    25    28 1
    42    26    27 1
    43    27    52 1
    44    28    29 ar
    45    28    38 ar
    46    29    30 ar
    47    29    39 1
    48    30    31 ar
    49    30    53 1
    50    31    32 ar
    51    31    54 1
    52    32    33 1
    53    32    38 ar
    54    33    34 1
    55    33    55 1
    56    33    56 1
    57    34    35 1
    58    34    57 1
    59    35    36 2
    60    35    37 1
    61    37    58 1
    62    37    59 1
    63    38    60 1
    64    39    61 1
    65    62     9 1
    66    63    37 1
@<TRIPOS>SUBSTRUCTURE
     1 C1B         1 TEMP              0 ****  ****    0 ROOT
