@<TRIPOS>MOLECULE
C1C
   38    41     1     0     0
SMALL
bcc


@<TRIPOS>ATOM
      1 C1          0.0520   -0.3020   -0.0620 ca        1 C1C     -0.152000
      2 C2          1.4100   -0.1050   -0.0260 ca        1 C1C     -0.146000
      3 C3          2.0990   -0.0250    1.2140 ca        1 C1C     -0.047000
      4 C4          1.3810   -0.1400    2.4340 ca        1 C1C     -0.013000
      5 C5         -0.0200   -0.3920    2.3560 ca        1 C1C     -0.059000
      6 C6         -0.6660   -0.4570    1.1450 ca        1 C1C     -0.171000
      7 C7          3.5040    0.1730    1.2540 ca        1 C1C     -0.171000
      8 C8          4.1380    0.3130    2.4580 ca        1 C1C     -0.093000
      9 C9          3.4250    0.2840    3.6900 ca        1 C1C     -0.086600
     10 C10         2.0640    0.0230    3.6890 cp        1 C1C     -0.001000
     11 C11         1.2670   -0.0460    4.9290 cp        1 C1C     -0.001000
     12 C12         1.0380    1.1720    5.6580 ca        1 C1C     -0.013000
     13 C13         0.2300    1.1610    6.8260 ca        1 C1C     -0.047000
     14 C14        -0.2780   -0.0750    7.3050 ca        1 C1C     -0.171000
     15 C15        -0.0390   -1.2260    6.6040 ca        1 C1C     -0.093000
     16 C16         0.6980   -1.2250    5.3860 ca        1 C1C     -0.086600
     17 C17         1.5750    2.4240    5.2370 ca        1 C1C     -0.059000
     18 C18         1.2720    3.5890    5.9000 ca        1 C1C     -0.171000
     19 C19         0.4350    3.5710    7.0390 ca        1 C1C     -0.152000
     20 C20        -0.0620    2.3780    7.4990 ca        1 C1C     -0.146000
     21 C21         0.6570   -2.5760    4.6720 c         1 C1C      0.913200
     22 O22         1.5670   -3.4210    4.8640 o         1 C1C     -0.830300
     23 O23        -0.3880   -2.8080    3.9890 o         1 C1C     -0.830300
     24 C24         4.2970    0.6740    4.8840 c         1 C1C      0.913200
     25 O25         4.4660    1.9190    5.0610 o         1 C1C     -0.830300
     26 O26         4.8820   -0.2130    5.5560 o         1 C1C     -0.830300
     27 H1         -0.4830   -0.3600   -1.0200 ha        1 C1C      0.090000
     28 H2          1.9900   -0.0070   -0.9540 ha        1 C1C      0.096000
     29 H5         -0.5720   -0.5980    3.2920 ha        1 C1C      0.176000
     30 H6         -1.7440   -0.6610    1.1050 ha        1 C1C      0.108000
     31 H7          4.0610    0.2140    0.3070 ha        1 C1C      0.095000
     32 H8          5.2260    0.4730    2.5070 ha        1 C1C      0.124000
     33 H14        -0.8630   -0.0840    8.2350 ha        1 C1C      0.095000
     34 H15        -0.4310   -2.1920    6.9570 ha        1 C1C      0.124000
     35 H17         2.2970    2.4330    4.4000 ha        1 C1C      0.176000
     36 H18         1.7030    4.5420    5.5660 ha        1 C1C      0.108000
     37 H19         0.2070    4.5130    7.5550 ha        1 C1C      0.090000
     38 H20        -0.6950    2.3400    8.3970 ha        1 C1C      0.096000
@<TRIPOS>BOND
     1    1    2 ar  
     2    1    6 ar  
     3    1   27 1   
     4    2    3 ar  
     5    2   28 1   
     6    3    4 ar  
     7    3    7 ar  
     8    4    5 ar  
     9    4   10 ar  
    10    5    6 ar  
    11    5   29 1   
    12    6   30 1   
    13    7    8 ar  
    14    7   31 1   
    15    8    9 ar  
    16    8   32 1   
    17    9   10 ar  
    18    9   24 1   
    19   10   11 1   
    20   11   12 ar  
    21   11   16 ar  
    22   12   13 ar  
    23   12   17 ar  
    24   13   14 ar  
    25   13   20 ar  
    26   14   15 ar  
    27   14   33 1   
    28   15   16 ar  
    29   15   34 1   
    30   16   21 1   
    31   17   18 ar  
    32   17   35 1   
    33   18   19 ar  
    34   18   36 1   
    35   19   20 ar  
    36   19   37 1   
    37   20   38 1   
    38   21   22 1   
    39   21   23 1   
    40   24   25 1   
    41   24   26 1   
@<TRIPOS>SUBSTRUCTURE
     1 C1C         1 TEMP              0 ****  ****    0 ROOT
