@<TRIPOS>MOLECULE
molecule
   38    41     1     0     0
SMALL
bcc


@<TRIPOS>ATOM
      1 C1           0.0000     0.0000     0.0000 ca         1 C1C      -0.157000
      2 C2           1.3630     0.0000     0.0000 ca         1 C1C      -0.135000
      3 C3           2.0580     0.0000     1.2210 ca         1 C1C      -0.023000
      4 C4           1.3260     0.0010     2.4340 ca         1 C1C      -0.013500
      5 C5          -0.0750     0.0010     2.3960 ca         1 C1C      -0.075500
      6 C6          -0.7170     0.0060     1.1930 ca         1 C1C      -0.180000
      7 C7           3.4650    -0.0000     1.2530 ca         1 C1C      -0.194000
      8 C8           4.1260    -0.0010     2.4400 ca         1 C1C      -0.055000
      9 C9           3.4260    -0.0010     3.6570 ca         1 C1C      -0.079100
     10 C10          2.0240     0.0010     3.6660 cp         1 C1C       0.048500
     11 C11          1.2870     0.0010     4.9410 cp         1 C1C       0.048500
     12 C12          0.9290     1.2220     5.5630 ca         1 C1C      -0.013500
     13 C13          0.2200     1.1970     6.7890 ca         1 C1C      -0.023000
     14 C14         -0.1210    -0.0370     7.3750 ca         1 C1C      -0.194000
     15 C15          0.2270    -1.2040     6.7700 ca         1 C1C      -0.055000
     16 C16          0.9250    -1.2070     5.5520 ca         1 C1C      -0.079100
     17 C17          1.2660     2.4540     4.9860 ca         1 C1C      -0.075500
     18 C18          0.9080     3.6120     5.6100 ca         1 C1C      -0.180000
     19 C19          0.2100     3.5890     6.8140 ca         1 C1C      -0.157000
     20 C20         -0.1340     2.4100     7.4030 ca         1 C1C      -0.135000
     21 C21          1.2900    -2.4880     4.9190 c          1 C1C       0.889200
     22 O22          0.9530    -3.6510     5.5100 o          1 C1C      -0.839300
     23 O23          1.8930    -2.4930     3.8640 o          1 C1C      -0.839300
     24 C24          4.1680    -0.0020     4.9310 c          1 C1C       0.889200
     25 O25          3.5650    -0.0010     5.9850 o          1 C1C      -0.839300
     26 O26          5.5160    -0.0030     4.9250 o          1 C1C      -0.839300
     27 H1          -0.5330     0.0050    -0.9430 ha         1 C1C       0.087000
     28 H2           1.9070    -0.0050    -0.9370 ha         1 C1C       0.100000
     29 H5          -0.6450     0.0060     3.3170 ha         1 C1C       0.136000
     30 H6          -1.8000     0.0060     1.1660 ha         1 C1C       0.096000
     31 H7           4.0250    -0.0000     0.3260 ha         1 C1C       0.093000
     32 H8           5.2090    -0.0020     2.4480 ha         1 C1C       0.142000
     33 H14         -0.6590    -0.0570     8.3150 ha         1 C1C       0.093000
     34 H15         -0.0460    -2.1450     7.2300 ha         1 C1C       0.142000
     35 H17          1.8090     2.4860     4.0490 ha         1 C1C       0.136000
     36 H18          1.1690     4.5630     5.1620 ha         1 C1C       0.096000
     37 H19         -0.0630     4.5240     7.2900 ha         1 C1C       0.087000
     38 H20         -0.6770     2.4080     8.3410 ha         1 C1C       0.100000
@<TRIPOS>BOND
     1     2     1 ar
     2     6     1 ar
     3     1    27 1
     4     3     2 ar
     5     2    28 1
     6     7     3 ar
     7     4     3 ar
     8    10     4 ar
     9     4     5 ar
    10     5     6 ar
    11     5    29 1
    12     6    30 1
    13     8     7 ar
    14     7    31 1
    15     9     8 ar
    16     8    32 1
    17    24     9 1
    18     9    10 ar
    19    11    10 1
    20    16    11 ar
    21    11    12 ar
    22    13    12 ar
    23    12    17 ar
    24    14    13 ar
    25    13    20 ar
    26    15    14 ar
    27    14    33 1
    28    15    16 ar
    29    15    34 1
    30    21    16 1
    31    17    18 ar
    32    17    35 1
    33    19    18 ar
    34    18    36 1
    35    20    19 ar
    36    19    37 1
    37    20    38 1
    38    23    21 1
    39    21    22 1
    40    25    24 1
    41    26    24 1
@<TRIPOS>SUBSTRUCTURE
     1 C1C         1 TEMP              0 ****  ****    0 ROOT
