@<TRIPOS>MOLECULE
molecule
   62    64     1     0     0
SMALL
bcc


@<TRIPOS>ATOM
      1 C1           0.0000     0.0000     0.0000 ca         1 C1D       0.398200
      2 N2           1.3520     0.0000     0.0000 nb         1 C1D      -0.621000
      3 C3           1.9340     0.0000     1.2110 ca         1 C1D       0.330600
      4 C4           1.2670     0.0000     2.4160 ca         1 C1D      -0.208300
      5 C5          -0.1230     0.0000     2.3750 ca         1 C1D      -0.091000
      6 C6          -0.7760    -0.0010     1.1480 ca         1 C1D      -0.224300
      7 C11          3.4440     0.0010     1.2180 c3         1 C1D       0.365300
      8 C12          3.9900    -1.4270     1.2200 c3         1 C1D       0.192800
      9 F13          3.9590     0.6550     0.1350 f          1 C1D      -0.229800
     10 F14          3.9500     0.6550     2.3040 f          1 C1D      -0.229800
     11 N15          5.4210    -1.4070     1.2280 nu         1 C1D      -0.847200
     12 C18          6.1300    -2.5850     1.2580 c2         1 C1D       0.620200
     13 C19          7.6550    -2.4270     1.2630 c3         1 C1D       0.379000
     14 N20          8.3620    -3.6880     1.5400 nh         1 C1D      -0.723400
     15 C21          7.6180    -4.8670     1.4720 c2         1 C1D       0.158400
     16 C22          6.2880    -4.8730     1.3250 ce         1 C1D       0.022600
     17 N23          5.5200    -3.7410     1.2650 ne         1 C1D      -0.630300
     18 C24          9.7820    -3.6030     1.7480 c3         1 C1D       0.253800
     19 C25         10.2000    -4.1690     3.0960 c3         1 C1D       0.129800
     20 N28         11.6480    -4.0620     3.3130 n7         1 C1D      -0.834200
     21 C29         12.0470    -4.6100     4.5630 c3         1 C1D       0.183800
     22 C30         13.5610    -4.4550     4.7350 c3         1 C1D      -0.110700
     23 C33         13.9310    -2.9640     4.6790 c3         1 C1D      -0.062400
     24 C34         15.4240    -2.7640     4.9160 c3         1 C1D      -0.142400
     25 C2          13.8340    -6.5990     6.1020 c3         1 C1D      -0.090100
     26 C35         15.8650    -3.4440     6.2140 c3         1 C1D       0.334700
     27 C37         14.0790    -5.0890     6.0480 c3         1 C1D       0.177500
     28 O42          7.9570    -1.4510     2.2530 oh         1 C1D      -0.605800
     29 N6          17.3080    -3.2870     6.3770 nz         1 C1D      -0.810600
     30 Cl43         8.4910    -6.3480     1.5820 cl         1 C1D      -0.103400
     31 N29         15.5270    -4.8660     6.1950 n7         1 C1D      -0.823200
     32 H1          -0.5080    -0.0000    -0.9570 h4         1 C1D       0.028100
     33 H4           1.8030     0.0000     3.3570 ha         1 C1D       0.158000
     34 H5          -0.6940     0.0000     3.2960 ha         1 C1D       0.144000
     35 H6          -1.8580    -0.0010     1.0910 ha         1 C1D       0.153000
     36 H121         3.6420    -1.9450     0.3350 h1         1 C1D       0.079700
     37 H122         3.6340    -1.9450     2.1020 h1         1 C1D       0.079700
     38 H15          5.9070    -0.5320     1.2060 hn         1 C1D       0.454800
     39 H119         7.9700    -2.0580     0.2940 h2         1 C1D       0.042700
     40 H22          5.7840    -5.8310     1.3050 h4         1 C1D       0.176000
     41 H241        10.0840    -2.5640     1.6940 h1         1 C1D       0.049700
     42 H242        10.2860    -4.1570     0.9640 h1         1 C1D       0.049700
     43 H251         9.9120    -5.2120     3.1440 h1         1 C1D       0.055200
     44 H252         9.6850    -3.6250     3.8790 h1         1 C1D       0.055200
     45 H28         12.1320    -4.5310     2.5730 hn         1 C1D       0.353800
     46 H291        11.7870    -5.6610     4.5960 h1         1 C1D       0.043700
     47 H292        11.5380    -4.0870     5.3640 h1         1 C1D       0.043700
     48 H330        14.0510    -4.9530     3.9070 hc         1 C1D       0.053700
     49 H33         13.6710    -2.5710     3.7040 hc         1 C1D       0.082200
     50 H331        13.3760    -2.4320     5.4430 hc         1 C1D       0.082200
     51 H34         15.9750    -3.1910     4.0870 hc         1 C1D       0.062700
     52 H341        15.6340    -1.7030     4.9810 hc         1 C1D       0.062700
     53 H2C1        14.0320    -7.0320     5.1290 hc         1 C1D       0.059033
     54 H2C2        12.8030    -6.7880     6.3770 hc         1 C1D       0.059033
     55 H2C3        14.4910    -7.0460     6.8370 hc         1 C1D       0.059033
     56 H335        15.3580    -2.9730     7.0470 hx         1 C1D       0.127700
     57 H337        13.5710    -4.6200     6.8820 h1         1 C1D       0.078700
     58 H42          8.3770    -0.7110     1.8470 ho         1 C1D       0.410000
     59 H6N1        17.7770    -3.6610     5.5750 hn         1 C1D       0.457800
     60 H6N2        17.5300    -2.3160     6.4700 hn         1 C1D       0.457800
     61 HN1         16.0120    -5.3140     5.4440 hn         1 C1D       0.366800
     62 H63         17.6110    -3.8000     7.1810 hn         1 C1D       0.457800
@<TRIPOS>BOND
     1     1     2 ar
     2     1     6 ar
     3     1    32 1
     4     2     3 ar
     5     3     4 ar
     6     3     7 1
     7     4     5 ar
     8     4    33 1
     9     5     6 ar
    10     5    34 1
    11     6    35 1
    12     7     8 1
    13     7     9 1
    14     7    10 1
    15     8    11 1
    16     8    36 1
    17     8    37 1
    18    11    12 1
    19    11    38 1
    20    12    13 1
    21    12    17 2
    22    13    14 1
    23    13    28 1
    24    13    39 1
    25    14    15 1
    26    14    18 1
    27    15    16 2
    28    15    30 1
    29    16    17 1
    30    16    40 1
    31    18    19 1
    32    18    41 1
    33    18    42 1
    34    19    20 1
    35    19    43 1
    36    19    44 1
    37    20    21 1
    38    20    45 1
    39    21    22 1
    40    21    46 1
    41    21    47 1
    42    22    23 1
    43    22    27 1
    44    22    48 1
    45    23    24 1
    46    23    49 1
    47    23    50 1
    48    24    26 1
    49    24    51 1
    50    24    52 1
    51    25    27 1
    52    25    53 1
    53    25    54 1
    54    25    55 1
    55    26    29 1
    56    26    31 1
    57    26    56 1
    58    27    31 1
    59    27    57 1
    60    28    58 1
    61    29    59 1
    62    29    60 1
    63    61    31 1
    64    62    29 1
@<TRIPOS>SUBSTRUCTURE
     1 C1D         1 TEMP              0 ****  ****    0 ROOT
