@<TRIPOS>MOLECULE
molecule
   25    25     1     0     0
SMALL
bcc


@<TRIPOS>ATOM
      1 OA4          0.0000     0.0000     0.0000 o          1 C1E      -0.546100
      2 CA6          1.2180     0.0000     0.0000 c          1 C1E       0.579900
      3 CA5          1.9480     0.0000     1.2660 ce         1 C1E      -0.351200
      4 CA4          1.2700    -0.0010     2.4410 cf         1 C1E       0.020000
      5 CA3          1.9760    -0.0000     3.6650 cf         1 C1E      -0.075600
      6 ClA1         3.7050    -0.1680     3.6700 cl         1 C1E      -0.181400
      7 CA2          1.3040     0.1290     4.8390 ce         1 C1E       0.113900
      8 OA3          1.9530    -0.0390     6.0170 oh         1 C1E      -0.518100
      9 CA1         -0.1340     0.4560     4.8320 c          1 C1E       0.859800
     10 OA2         -0.8290     0.4620     5.9870 o          1 C1E      -0.799800
     11 OA1         -0.6920     0.7170     3.7850 o          1 C1E      -0.799800
     12 CB1          1.9560    -0.0050    -1.2810 ca         1 C1E      -0.146600
     13 CB2          1.2620    -0.0110    -2.4920 ca         1 C1E      -0.085000
     14 CB3          1.9570    -0.0160    -3.6830 ca         1 C1E      -0.151500
     15 CB4          3.3410    -0.0160    -3.6790 ca         1 C1E      -0.122000
     16 CB5          4.0370    -0.0110    -2.4830 ca         1 C1E      -0.151500
     17 CB6          3.3530     0.0000    -1.2850 ca         1 C1E      -0.085000
     18 HA5          3.0320     0.0010     1.2660 ha         1 C1E       0.124000
     19 HA4          0.1860    -0.0010     2.4410 ha         1 C1E       0.238000
     20 HOA3         2.2620     0.7960     6.3280 ho         1 C1E       0.422000
     21 HB2          0.1780    -0.0110    -2.4970 ha         1 C1E       0.148000
     22 HB3          1.4200    -0.0210    -4.6230 ha         1 C1E       0.122000
     23 HB4          3.8820    -0.0230    -4.6170 ha         1 C1E       0.116000
     24 HB5          5.1200    -0.0090    -2.4870 ha         1 C1E       0.122000
     25 HB6          3.8990     0.0050    -0.3490 ha         1 C1E       0.148000
@<TRIPOS>BOND
     1     8     7 1
     2     6     5 1
     3     7     9 1
     4     7     5 2
     5    11     9 1
     6     9    10 1
     7     5     4 1
     8     4     3 2
     9     3     2 1
    10     2     1 2
    11     2    12 1
    12    12    13 ar
    13    12    17 ar
    14    13    14 ar
    15    17    16 ar
    16    14    15 ar
    17    16    15 ar
    18     3    18 1
    19     4    19 1
    20     8    20 1
    21    13    21 1
    22    14    22 1
    23    15    23 1
    24    16    24 1
    25    17    25 1
@<TRIPOS>SUBSTRUCTURE
     1 C1E         1 TEMP              0 ****  ****    0 ROOT
