@<TRIPOS>MOLECULE
C1E
   25    25     1     0     0
SMALL
bcc


@<TRIPOS>ATOM
      1 OA4        -0.6600    0.9640   -0.9670 o         1 C1E     -0.566100
      2 CA6         0.2080    0.2560   -0.4330 c         1 C1E      0.608900
      3 CA5        -0.0710   -0.5610    0.7560 ce        1 C1E     -0.322200
      4 CA4         0.3470   -0.3870    2.0180 cf        1 C1E     -0.010000
      5 CA3         1.1710    0.6640    2.5620 cf        1 C1E     -0.110600
      6 CLA1        1.2590    2.1270    1.6560 cl        1 C1E     -0.158400
      7 CA2         1.8300    0.5340    3.7470 ce        1 C1E      0.074900
      8 OA3         2.5780    1.5830    4.2030 oh        1 C1E     -0.518100
      9 CA1         1.8550   -0.6930    4.6770 c         1 C1E      0.893800
     10 OA2         2.5330   -0.5190    5.7310 o         1 C1E     -0.800800
     11 OA1         1.2480   -1.7470    4.3710 o         1 C1E     -0.800800
     12 CB1         1.5460    0.1060   -1.0620 ca        1 C1E     -0.154600
     13 CB2         1.7900    0.7070   -2.3050 ca        1 C1E     -0.077000
     14 CB3         3.0300    0.5670   -2.9240 ca        1 C1E     -0.155500
     15 CB4         4.0390   -0.1700   -2.3040 ca        1 C1E     -0.119000
     16 CB5         3.8060   -0.7640   -1.0650 ca        1 C1E     -0.155500
     17 CB6         2.5640   -0.6280   -0.4440 ca        1 C1E     -0.077000
     18 HA5        -0.7330   -1.4140    0.5250 ha        1 C1E      0.133000
     19 HA4         0.0500   -1.1500    2.7760 ha        1 C1E      0.184000
     20 HOA3        2.9730    1.3130    5.0590 ho        1 C1E      0.454000
     21 HB2         0.9880    1.2940   -2.7800 ha        1 C1E      0.155500
     22 HB3         3.2140    1.0420   -3.8980 ha        1 C1E      0.124500
     23 HB4         5.0190   -0.2780   -2.7910 ha        1 C1E      0.117000
     24 HB5         4.6030   -1.3370   -0.5680 ha        1 C1E      0.124500
     25 HB6         2.3850   -1.0860    0.5450 ha        1 C1E      0.155500
@<TRIPOS>BOND
     1    1    2 2   
     2    2    3 1   
     3    2   12 1   
     4    3    4 2   
     5    3   18 1   
     6    4    5 1   
     7    4   19 1   
     8    5    6 1   
     9    5    7 2   
    10    7    8 1   
    11    7    9 1   
    12    8   20 1   
    13    9   10 1   
    14    9   11 1   
    15   12   13 ar  
    16   12   17 ar  
    17   13   14 ar  
    18   13   21 1   
    19   14   15 ar  
    20   14   22 1   
    21   15   16 ar  
    22   15   23 1   
    23   16   17 ar  
    24   16   24 1   
    25   17   25 1   
@<TRIPOS>SUBSTRUCTURE
     1 C1E         1 TEMP              0 ****  ****    0 ROOT
