@<TRIPOS>MOLECULE
C1F
   31    30     1     0     0
SMALL
bcc


@<TRIPOS>ATOM
      1 C1          0.4090   -0.2550    0.1370 c2        1 C1F      0.099000
      2 C2          1.7330    0.0760   -0.2100 c2        1 C1F     -0.271000
      3 C3          2.4200    0.3420    1.0110 c2        1 C1F      0.190000
      4 C4          3.8290    0.7010    1.2650 c3        1 C1F     -0.147000
      5 C6         -0.6680   -0.6070   -0.7890 c3        1 C1F     -0.174000
      6 O           1.5860    0.1930    2.0710 os        1 C1F     -0.151000
      7 C7         -3.8050   -1.2310    1.4880 c3        1 C1F     -0.226500
      8 C9          4.0100    1.7500    2.3400 c3        1 C1F     -0.216000
      9 C40         0.2750   -0.1930    1.5650 c2        1 C1F     -0.177000
     10 C12        -4.3930   -2.3010    2.3570 c3        1 C1F     -0.226500
     11 C70         5.3860    1.6760    3.0190 c2        1 C1F      0.329000
     12 O1          3.4710    0.4860   -1.7990 o         1 C1F     -0.576000
     13 C13         2.2730    0.1360   -1.6110 c2        1 C1F      0.381000
     14 O2          1.4840   -0.1700   -2.5580 o         1 C1F     -0.576000
     15 O3          5.9640    0.5560    3.1390 o         1 C1F     -0.596500
     16 O4          5.8720    2.7560    3.4730 o         1 C1F     -0.596500
     17 H4C1        4.3770   -0.2340    1.5880 hc        1 C1F      0.149000
     18 H4C2        4.2800    1.0330    0.2870 hc        1 C1F      0.149000
     19 H6C1       -0.8160    0.2300   -1.5200 hc        1 C1F      0.098000
     20 H6C2       -1.6200   -0.8170   -0.2420 hc        1 C1F      0.098000
     21 H6C3       -0.3600   -1.5020   -1.3910 hc        1 C1F      0.098000
     22 H7C1       -2.7440   -0.9840    1.8070 hc        1 C1F      0.072333
     23 H7C2       -4.4150   -0.2980    1.5470 hc        1 C1F      0.072333
     24 H7C3       -3.7770   -1.5610    0.4210 hc        1 C1F      0.072333
     25 H9C1        3.8740    2.7710    1.9050 hc        1 C1F      0.070500
     26 H9C2        3.2430    1.6150    3.1460 hc        1 C1F      0.070500
     27 H111       -0.6410   -0.3010    3.4780 ha        1 C1F      0.055000
     28 H112       -3.7810   -3.2340    2.2980 hc        1 C1F      0.072333
     29 H121       -4.4190   -1.9710    3.4230 hc        1 C1F      0.072333
     30 H122       -5.4380   -2.5500    2.0450 hc        1 C1F      0.072333
     31 C11        -0.7550   -0.4100    2.3960 c1        1 C1F     -0.289000
@<TRIPOS>BOND
     1    1    2 1   
     2    1    5 1   
     3    1    9 1   
     4    2    3 1   
     5    2   13 1   
     6    3    4 1   
     7    3    6 1   
     8    4    8 1   
     9    4   17 1   
    10    4   18 1   
    11    5   19 1   
    12    5   20 1   
    13    5   21 1   
    14    6    9 1   
    15    7   10 1   
    16    7   22 1   
    17    7   23 1   
    18    7   24 1   
    19    8   11 1   
    20    8   25 1   
    21    8   26 1   
    22    9   31 1   
    23   10   28 1   
    24   10   29 1   
    25   10   30 1   
    26   11   15 1   
    27   11   16 1   
    28   12   13 1   
    29   13   14 1   
    30   27   31 1   
@<TRIPOS>SUBSTRUCTURE
     1 C1F         1 TEMP              0 ****  ****    0 ROOT
