@<TRIPOS>MOLECULE
molecule
   58    59     1     0     0
SMALL
bcc


@<TRIPOS>ATOM
      1 C2           1.5070     0.0000     0.0000 c          1 C1G       0.651100
      2 C4           3.6410    -0.8870     0.7720 c3         1 C1G       0.175000
      3 C5           4.2640    -1.5310    -0.4680 c3         1 C1G      -0.156100
      4 C6           4.0960    -1.6250     2.0040 cc         1 C1G      -0.134300
      5 C7           5.1160    -1.1600     2.8170 cd         1 C1G      -0.158000
      6 C8           5.3940    -1.9340     3.8670 cc         1 C1G      -0.039100
      7 C11          0.0000     0.0000     0.0000 cy         1 C1G      -0.273000
      8 C12         -0.6160     0.0000     1.4090 cy         1 C1G      -0.057400
      9 C15         -0.5860    -1.0450    -0.9140 c          1 C1G       0.673100
     10 C18         -0.5630    -2.3150    -2.9940 c3         1 C1G       0.149700
     11 C19         -0.3310    -1.9640    -4.4650 c3         1 C1G      -0.213400
     12 C21         -0.9450    -0.3950    -6.3090 c3         1 C1G       0.120000
     13 N22         -1.7570     0.7710    -6.6680 ns         1 C1G      -0.556900
     14 C23         -1.7130     1.2630    -7.9210 c          1 C1G       0.590100
     15 O25         -1.0000     0.7390    -8.7550 o          1 C1G      -0.475100
     16 O1           2.1130     0.8600    -0.6030 o          1 C1G      -0.581100
     17 N3           2.1810    -0.9520     0.6760 ns         1 C1G      -0.583900
     18 S9           4.3330    -3.3360     3.8650 ss         1 C1G      -0.094800
     19 C10          3.5430    -2.7730     2.3970 cd         1 C1G      -0.111100
     20 C13         -1.6630     0.9870     0.8670 cy         1 C1G      -0.098400
     21 C14         -0.6160     1.3960    -0.1840 cy         1 C1G      -0.057400
     22 O16         -1.5180    -1.7240    -0.5410 o          1 C1G      -0.630100
     23 N17         -0.0720    -1.2250    -2.1470 ns         1 C1G      -0.607900
     24 N24         -2.4610     2.3350    -8.2500 nz         1 C1G      -0.670400
     25 C26          0.1870    -3.6040    -2.6530 c3         1 C1G       0.076800
     26 N27          0.0610    -3.8780    -1.2150 nz         1 C1G      -0.807600
     27 H1           3.9530     0.1490     0.8360 h1         1 C1G       0.094700
     28 H2           4.6050    -0.5020    -0.4510 hc         1 C1G       0.067367
     29 H3           5.0320    -2.2650    -0.2580 hc         1 C1G       0.067367
     30 H4           3.5610    -1.7600    -1.2590 hc         1 C1G       0.067367
     31 H5           5.6480    -0.2380     2.6150 ha         1 C1G       0.162000
     32 H6           6.1590    -1.7310     4.6070 h4         1 C1G       0.192000
     33 H7           0.0340     0.4400     2.1560 hc         1 C1G       0.077700
     34 H8          -1.0400    -0.9580     1.6860 hc         1 C1G       0.077700
     35 H9          -1.6230    -2.4570    -2.8200 h1         1 C1G       0.079700
     36 H10         -1.3050    -2.3010    -4.1330 hc         1 C1G       0.105200
     37 H11         -0.0660    -2.7080    -5.2060 hc         1 C1G       0.105200
     38 H12         -1.2280    -1.2360    -6.9310 h1         1 C1G       0.087700
     39 H13          0.1020    -0.1670    -6.4650 h1         1 C1G       0.087700
     40 H14         -2.3510     1.1970    -5.9830 hn         1 C1G       0.333500
     41 H15          1.6800    -1.6790     1.1480 hn         1 C1G       0.304500
     42 H16          2.7350    -3.2840     1.8880 h4         1 C1G       0.134000
     43 H17         -2.5260     0.4950     0.4360 hc         1 C1G       0.076700
     44 H18         -1.8970     1.7820     1.5640 hc         1 C1G       0.076700
     45 H19         -1.0410     1.5460    -1.1690 hc         1 C1G       0.077700
     46 H20          0.0340     2.1940     0.1540 hc         1 C1G       0.077700
     47 H21          0.6590    -0.6260    -2.4770 hn         1 C1G       0.364500
     48 H22         -2.2250    -0.9750    -4.6830 hc         1 C1G       0.058200
     49 H23         -0.8950     0.0950    -4.2170 hc         1 C1G       0.058200
     50 H24         -2.4290     3.0050    -7.5070 hn         1 C1G       0.486133
     51 H25         -3.4080     2.0490    -8.4000 hn         1 C1G       0.486133
     52 H26         -0.2370    -4.4280    -3.2150 hx         1 C1G       0.120700
     53 H27          1.2330    -3.4920    -2.9090 hx         1 C1G       0.120700
     54 H28          0.4650    -4.7700    -1.0080 hn         1 C1G       0.466800
     55 H29         -0.9060    -3.8820    -0.9590 hn         1 C1G       0.466800
     56 H243        -2.0950     2.7540    -9.0820 hn         1 C1G       0.486133
     57 H273         0.5480    -3.1720    -0.6970 hn         1 C1G       0.466800
     58 C20         -1.1780    -0.7470    -4.8380 c3         1 C1G      -0.066400
@<TRIPOS>BOND
     1     6    18 1
     2     6     5 2
     3    18    19 1
     4    22     9 2
     5    21    20 1
     6    21     7 1
     7     5     4 1
     8    20     8 1
     9    19     4 2
    10     9     7 1
    11     9    23 1
    12     4     2 1
    13    25    26 1
    14    25    10 1
    15     7     8 1
    16     7     1 1
    17    17     1 1
    18    17     2 1
    19    10    23 1
    20    10    11 1
    21     1    16 2
    22     2     3 1
    23    11    58 1
    24    58    12 1
    25    12    13 1
    26    13    14 1
    27    14    24 1
    28    14    15 2
    29     2    27 1
    30     3    28 1
    31     3    29 1
    32     3    30 1
    33     5    31 1
    34     6    32 1
    35     8    33 1
    36     8    34 1
    37    10    35 1
    38    11    36 1
    39    11    37 1
    40    12    38 1
    41    12    39 1
    42    13    40 1
    43    17    41 1
    44    19    42 1
    45    20    43 1
    46    20    44 1
    47    21    45 1
    48    21    46 1
    49    23    47 1
    50    58    48 1
    51    58    49 1
    52    24    50 1
    53    24    51 1
    54    25    52 1
    55    25    53 1
    56    26    54 1
    57    26    55 1
    58    56    24 1
    59    57    26 1
@<TRIPOS>SUBSTRUCTURE
     1 C1G         1 TEMP              0 ****  ****    0 ROOT
