@<TRIPOS>MOLECULE
molecule
   46    47     1     0     0
SMALL
bcc


@<TRIPOS>ATOM
      1 OAA          0.0000     0.0000     0.0000 o          1 C1H      -0.159000
      2 NAB          1.2180     0.0000     0.0000 no         1 C1H       0.319200
      3 OAC          2.8900    -0.0030     8.5810 o          1 C1H      -0.533000
      4 OAD          0.6020    -0.5490    14.6480 o          1 C1H      -0.576300
      5 OAE          1.9260     0.0000     1.2260 os         1 C1H      -0.297000
      6 CAF          1.0850    -0.0010     2.3820 c3         1 C1H       0.113400
      7 CAG          1.9530    -0.0010     3.6440 c3         1 C1H      -0.075400
      8 CAH          1.0520    -0.0020     4.8800 c3         1 C1H      -0.084400
      9 CAI          1.9190    -0.0020     6.1410 c3         1 C1H       0.152400
     10 OAJ          1.0660    -0.0020     7.3160 os         1 C1H      -0.431900
     11 CAK          1.6760    -0.0030     8.5160 c          1 C1H       0.647700
     12 CAL          0.8720    -0.0030     9.7550 ca         1 C1H      -0.147600
     13 CAM          1.5020    -0.0040    11.0010 ca         1 C1H       0.032000
     14 CAN          0.7440    -0.0040    12.1540 ca         1 C1H      -0.340500
     15 SAO          1.5370    -0.0040    13.7270 sy         1 C1H       1.392200
     16 NAP          1.7570     1.5780    14.1650 nu         1 C1H      -0.796800
     17 CAQ          0.6590     2.3900    14.4060 cc         1 C1H       0.749300
     18 NAR         -0.5920     2.0360    14.3230 nd         1 C1H      -0.381000
     19 NAS         -1.4650     2.9090    14.5790 nd         1 C1H      -0.207000
     20 OAT         -2.4310     5.3310    16.6730 o          1 C1H      -0.498300
     21 CAU         -0.5230     0.0020     9.6850 ca         1 C1H      -0.016000
     22 CAV         -1.2680     0.0020    10.8460 ca         1 C1H      -0.172000
     23 CAW         -0.6380    -0.0040    12.0770 ca         1 C1H       0.005000
     24 OAX          2.8340    -0.5480    13.5230 o          1 C1H      -0.576300
     25 SAY          0.7050     4.0870    14.8860 ss         1 C1H      -0.081800
     26 CAZ         -1.0600     4.0940    14.9040 cc         1 C1H       0.058300
     27 SBA         -2.0890     5.4680    15.3000 sy         1 C1H       1.225800
     28 NBB         -3.4970     5.2890    14.4480 nz         1 C1H      -0.805500
     29 OBC         -1.4430     6.6180    14.7710 o          1 C1H      -0.498300
     30 ONA          1.8270    -0.0040    -1.0540 o          1 C1H      -0.159000
     31 HAF          0.4590     0.8830     2.3740 h1         1 C1H       0.062200
     32 HAFA         0.4610    -0.8860     2.3730 h1         1 C1H       0.062200
     33 HAG          2.5780    -0.8850     3.6520 hc         1 C1H       0.065700
     34 HAGA         2.5780     0.8840     3.6520 hc         1 C1H       0.065700
     35 HAH          0.4260     0.8830     4.8720 hc         1 C1H       0.059200
     36 HAHA         0.4270    -0.8860     4.8720 hc         1 C1H       0.059200
     37 HAI          2.5450     0.8830     6.1490 h1         1 C1H       0.059200
     38 HAIA         2.5450    -0.8860     6.1490 h1         1 C1H       0.059200
     39 HAM          2.5810    -0.0770    11.0630 ha         1 C1H       0.181000
     40 HNAP         2.6820     1.9370    14.2930 hn         1 C1H       0.494800
     41 HAU         -1.0180     0.0070     8.7210 ha         1 C1H       0.162000
     42 HAV         -2.3500     0.0040    10.7930 ha         1 C1H       0.146000
     43 HAW         -1.2280    -0.0040    12.9850 ha         1 C1H       0.166000
     44 HNBB        -3.9650     4.4570    14.7480 hn         1 C1H       0.499800
     45 HNBA        -4.0880     6.0800    14.6100 hn         1 C1H       0.499800
     46 HBB3        -3.2900     5.2220    13.4710 hn         1 C1H       0.499800
@<TRIPOS>BOND
     1     1     2 1
     2     2     5 1
     3     2    30 1
     4     3    11 2
     5     4    15 2
     6     5     6 1
     7     6     7 1
     8     7     8 1
     9     8     9 1
    10     9    10 1
    11    10    11 1
    12    11    12 1
    13    12    13 ar
    14    12    21 ar
    15    13    14 ar
    16    14    15 1
    17    14    23 ar
    18    15    16 1
    19    15    24 2
    20    16    17 1
    21    17    18 2
    22    17    25 1
    23    18    19 1
    24    19    26 2
    25    20    27 2
    26    21    22 ar
    27    22    23 ar
    28    25    26 1
    29    26    27 1
    30    27    28 1
    31    27    29 2
    32     6    31 1
    33     6    32 1
    34     7    33 1
    35     7    34 1
    36     8    35 1
    37     8    36 1
    38     9    37 1
    39     9    38 1
    40    13    39 1
    41    16    40 1
    42    21    41 1
    43    22    42 1
    44    23    43 1
    45    28    44 1
    46    28    45 1
    47    46    28 1
@<TRIPOS>SUBSTRUCTURE
     1 C1H         1 TEMP              0 ****  ****    0 ROOT
