@<TRIPOS>MOLECULE
molecule
   71    77     1     0     0
SMALL
bcc


@<TRIPOS>ATOM
      1 C1           0.0000     0.0000     0.0000 c3         1 C1I       0.148100
      2 N2           1.4680     0.0000     0.0000 n3         1 C1I      -0.705600
      3 C3           1.9960     1.1370    -0.7660 c3         1 C1I       0.148100
      4 C4           1.9940     0.0000     1.3720 c3         1 C1I       0.175500
      5 C6           1.3210     1.1070     2.1760 c3         1 C1I      -0.104400
      6 C7           1.8170     1.1510     3.6050 c3         1 C1I       0.192000
      7 C8           3.0750     2.0430     3.7160 c3         1 C1I      -0.105400
      8 C9           2.9070     2.7390     5.0910 c3         1 C1I      -0.113400
      9 C10          1.5790     2.1680     5.6130 c3         1 C1I       0.192000
     10 O11          0.8310     1.8170     4.4350 os         1 C1I      -0.383600
     11 C12          1.8550     0.8770     6.3610 ce         1 C1I      -0.116200
     12 C13          2.1240    -0.3230     5.5400 ce         1 C1I      -0.093000
     13 C14          2.1140    -0.1910     4.2040 c2         1 C1I      -0.156400
     14 C15          2.4340    -1.4020     3.3730 c3         1 C1I       0.170300
     15 O17          2.0390    -2.5780     4.0820 oh         1 C1I      -0.605800
     16 C18          1.6950    -1.3470     2.0370 c3         1 C1I       0.144100
     17 O20          2.1470    -2.4090     1.1940 oh         1 C1I      -0.587800
     18 C21          1.8590     0.8140     7.6760 c2         1 C1I      -0.144200
     19 C22          1.6380     1.9860     8.5930 c3         1 C1I      -0.029200
     20 C23          1.6870     3.2750     7.8110 c3         1 C1I      -0.058000
     21 C24          3.1360     3.5950     7.4400 c3         1 C1I      -0.112100
     22 C25          1.0510     4.4930     8.4790 c3         1 C1I      -0.018400
     23 C26          0.4800     5.3480     7.3230 c3         1 C1I      -0.081400
     24 C27          0.7450     4.5540     6.0160 c3         1 C1I      -0.079400
     25 C28          0.8450     3.1130     6.5180 c3         1 C1I      -0.048700
     26 C29          2.0910     5.2720     9.2400 ca         1 C1I      -0.073300
     27 C30          2.1090     5.2130    10.6010 ca         1 C1I      -0.103000
     28 C31          3.0780     5.9390    11.3120 ca         1 C1I      -0.167300
     29 C32          3.1460     5.9160    12.7150 ca         1 C1I       0.445200
     30 N33          4.0710     6.6110    13.3350 nb         1 C1I      -0.695000
     31 C34          4.9660     7.3500    12.6940 ca         1 C1I       0.412200
     32 C35          4.9850     7.4380    11.3340 ca         1 C1I      -0.238300
     33 C36          4.0240     6.7210    10.5980 ca         1 C1I      -0.014000
     34 C37          3.9740     6.7580     9.1980 ca         1 C1I      -0.129000
     35 C38          3.0230     6.0360     8.5410 ca         1 C1I      -0.103000
     36 H11C        -0.3610    -0.6380     0.7980 h1         1 C1I       0.033533
     37 H12C        -0.3610     1.0100     0.1540 h1         1 C1I       0.033533
     38 H13C        -0.3610    -0.3720    -0.9510 h1         1 C1I       0.033533
     39 H31C         1.8590     0.9540    -1.8250 h1         1 C1I       0.033533
     40 H32C         3.0510     1.2570    -0.5530 h1         1 C1I       0.033533
     41 H33C         1.4660     2.0390    -0.4840 h1         1 C1I       0.033533
     42 H4           3.0650     0.1650     1.3560 h1         1 C1I       0.071700
     43 H61C         0.2520     0.9360     2.1820 hc         1 C1I       0.063700
     44 H62C         1.5290     2.0600     1.7040 hc         1 C1I       0.063700
     45 H18          0.6290    -1.4390     2.2080 h1         1 C1I       0.053700
     46 H81C         3.0940     2.7750     2.9180 hc         1 C1I       0.053700
     47 H82C         3.9740     1.4380     3.7030 hc         1 C1I       0.053700
     48 H91C         2.8390     3.8130     4.9690 hc         1 C1I       0.067700
     49 H92C         3.7220     2.4780     5.7540 hc         1 C1I       0.067700
     50 H28         -0.1390     2.7260     6.7550 hc         1 C1I       0.076700
     51 H13          2.0740    -1.3080     5.9880 ha         1 C1I       0.153000
     52 H21          2.0350    -0.1530     8.1320 ha         1 C1I       0.125000
     53 H15          3.5010    -1.4330     3.1870 h1         1 C1I       0.054700
     54 H17          2.7730    -3.1670     4.1480 ho         1 C1I       0.407000
     55 H20          1.5970    -3.1640     1.3180 ho         1 C1I       0.404000
     56 H221         0.6680     1.8910     9.0660 hc         1 C1I       0.055700
     57 H222         2.4120     1.9980     9.3510 hc         1 C1I       0.055700
     58 H241         3.1520     4.3030     6.6210 hc         1 C1I       0.048367
     59 H242         3.6410     2.6840     7.1400 hc         1 C1I       0.048367
     60 H243         3.6430     4.0220     8.2970 hc         1 C1I       0.048367
     61 H25          0.2510     4.1800     9.1400 hc         1 C1I       0.062700
     62 H261         0.9880     6.3040     7.2840 hc         1 C1I       0.050200
     63 H262        -0.5850     5.4920     7.4590 hc         1 C1I       0.050200
     64 H271         1.6770     4.8660     5.5600 hc         1 C1I       0.053200
     65 H272        -0.0840     4.6630     5.3270 hc         1 C1I       0.053200
     66 H30          1.4610     4.5200    11.1220 ha         1 C1I       0.137000
     67 H38          2.9870     6.0620     7.4590 ha         1 C1I       0.138000
     68 H32          2.4370     5.3270    13.2830 h4         1 C1I       0.026100
     69 H34          5.7030     7.8990    13.2670 h4         1 C1I       0.020100
     70 H35          5.7250     8.0480    10.8300 ha         1 C1I       0.140000
     71 H37          4.6930     7.3480     8.6420 ha         1 C1I       0.137000
@<TRIPOS>BOND
     1     1     2 1
     2     2     3 1
     3     2     4 1
     4     4     5 1
     5     4    16 1
     6     5     6 1
     7     6     7 1
     8     6    10 1
     9     6    13 1
    10     7     8 1
    11     8     9 1
    12     9    10 1
    13     9    11 1
    14     9    25 1
    15    11    12 1
    16    11    18 2
    17    12    13 2
    18    13    14 1
    19    14    15 1
    20    14    16 1
    21    16    17 1
    22    18    19 1
    23    19    20 1
    24    20    21 1
    25    20    22 1
    26    20    25 1
    27    22    23 1
    28    22    26 1
    29    23    24 1
    30    24    25 1
    31    26    27 ar
    32    26    35 ar
    33    27    28 ar
    34    28    29 ar
    35    28    33 ar
    36    29    30 ar
    37    30    31 ar
    38    31    32 ar
    39    32    33 ar
    40    33    34 ar
    41    34    35 ar
    42     1    36 1
    43     1    37 1
    44     1    38 1
    45     3    39 1
    46     3    40 1
    47     3    41 1
    48     4    42 1
    49     5    43 1
    50     5    44 1
    51    16    45 1
    52     7    46 1
    53     7    47 1
    54     8    48 1
    55     8    49 1
    56    25    50 1
    57    12    51 1
    58    18    52 1
    59    14    53 1
    60    15    54 1
    61    17    55 1
    62    19    56 1
    63    19    57 1
    64    21    58 1
    65    21    59 1
    66    21    60 1
    67    22    61 1
    68    23    62 1
    69    23    63 1
    70    24    64 1
    71    24    65 1
    72    27    66 1
    73    35    67 1
    74    29    68 1
    75    31    69 1
    76    32    70 1
    77    34    71 1
@<TRIPOS>SUBSTRUCTURE
     1 C1I         1 TEMP              0 ****  ****    0 ROOT
