@<TRIPOS>MOLECULE
C1I
   71    77     1     0     0
SMALL
bcc


@<TRIPOS>ATOM
      1 C1           0.0000     0.0000     0.0000 c3         1 C1I       0.172600
      2 N2           1.4680     0.0000     0.0000 n3         1 C1I      -0.518600
      3 C3           1.9960     1.1370    -0.7660 c3         1 C1I       0.172600
      4 C4           1.9940     0.0000     1.3720 c3         1 C1I       0.128500
      5 C6           1.3210     1.1070     2.1760 c3         1 C1I      -0.073400
      6 C7           1.8170     1.1510     3.6050 c3         1 C1I       0.228000
      7 C8           3.0750     2.0430     3.7160 c3         1 C1I      -0.055400
      8 C9           2.9070     2.7390     5.0910 c3         1 C1I      -0.100400
      9 C10          1.5790     2.1680     5.6130 c3         1 C1I       0.225000
     10 O11          0.8310     1.8170     4.4350 os         1 C1I      -0.377600
     11 C12          1.8550     0.8770     6.3610 ce         1 C1I      -0.129200
     12 C13          2.1240    -0.3230     5.5400 ce         1 C1I      -0.064000
     13 C14          2.1140    -0.1910     4.2040 c2         1 C1I      -0.180400
     14 C15          2.4340    -1.4020     3.3730 c3         1 C1I       0.226300
     15 O17          2.0390    -2.5780     4.0820 oh         1 C1I      -0.587800
     16 C18          1.6950    -1.3470     2.0370 c3         1 C1I       0.170100
     17 O20          2.1470    -2.4090     1.1940 oh         1 C1I      -0.570800
     18 C21          1.8590     0.8140     7.6760 c2         1 C1I      -0.121200
     19 C22          1.6380     1.9860     8.5930 c3         1 C1I       0.035800
     20 C23          1.6870     3.2750     7.8110 c3         1 C1I      -0.055000
     21 C24          3.1360     3.5950     7.4400 c3         1 C1I      -0.090100
     22 C25          1.0510     4.4930     8.4790 c3         1 C1I       0.015600
     23 C26          0.4800     5.3480     7.3230 c3         1 C1I      -0.031400
     24 C27          0.7450     4.5540     6.0160 c3         1 C1I      -0.031400
     25 C28          0.8450     3.1130     6.5180 c3         1 C1I      -0.039700
     26 C29          2.0910     5.2720     9.2400 ca         1 C1I      -0.078300
     27 C30          2.1090     5.2130    10.6010 ca         1 C1I      -0.073000
     28 C31          3.0780     5.9390    11.3120 ca         1 C1I      -0.160300
     29 C32          3.1460     5.9160    12.7150 ca         1 C1I       0.426200
     30 N33          4.0710     6.6110    13.3350 nb         1 C1I      -0.585000
     31 C34          4.9660     7.3500    12.6940 ca         1 C1I       0.396200
     32 C35          4.9850     7.4380    11.3340 ca         1 C1I      -0.205300
     33 C36          4.0240     6.7210    10.5980 ca         1 C1I      -0.018000
     34 C37          3.9740     6.7580     9.1980 ca         1 C1I      -0.097000
     35 C38          3.0230     6.0360     8.5410 ca         1 C1I      -0.089000
     36 H11C        -0.3610    -0.6380     0.7980 h1         1 C1I       0.004033
     37 H12C        -0.3610     1.0100     0.1540 h1         1 C1I       0.004033
     38 H13C        -0.3610    -0.3720    -0.9510 h1         1 C1I       0.004033
     39 H31C         1.8590     0.9540    -1.8250 h1         1 C1I       0.004033
     40 H32C         3.0510     1.2570    -0.5530 h1         1 C1I       0.004033
     41 H33C         1.4660     2.0390    -0.4840 h1         1 C1I       0.004033
     42 H4           3.0650     0.1650     1.3560 h1         1 C1I       0.045700
     43 H61C         0.2520     0.9360     2.1820 hc         1 C1I       0.040200
     44 H62C         1.5290     2.0600     1.7040 hc         1 C1I       0.040200
     45 H18          0.6290    -1.4390     2.2080 h1         1 C1I       0.025700
     46 H81C         3.0940     2.7750     2.9180 hc         1 C1I       0.026200
     47 H82C         3.9740     1.4380     3.7030 hc         1 C1I       0.026200
     48 H91C         2.8390     3.8130     4.9690 hc         1 C1I       0.053700
     49 H92C         3.7220     2.4780     5.7540 hc         1 C1I       0.053700
     50 H28         -0.1390     2.7260     6.7550 hc         1 C1I       0.051700
     51 H13          2.0740    -1.3080     5.9880 ha         1 C1I       0.127000
     52 H21          2.0350    -0.1530     8.1320 ha         1 C1I       0.100000
     53 H15          3.5010    -1.4330     3.1870 h1         1 C1I       0.019700
     54 H17          2.7730    -3.1670     4.1480 ho         1 C1I       0.394000
     55 H20          1.5970    -3.1640     1.3180 ho         1 C1I       0.391000
     56 H221         0.6680     1.8910     9.0660 hc         1 C1I       0.025700
     57 H222         2.4120     1.9980     9.3510 hc         1 C1I       0.025700
     58 H241         3.1520     4.3030     6.6210 hc         1 C1I       0.036367
     59 H242         3.6410     2.6840     7.1400 hc         1 C1I       0.036367
     60 H243         3.6430     4.0220     8.2970 hc         1 C1I       0.036367
     61 H25          0.2510     4.1800     9.1400 hc         1 C1I       0.037700
     62 H261         0.9880     6.3040     7.2840 hc         1 C1I       0.022700
     63 H262        -0.5850     5.4920     7.4590 hc         1 C1I       0.022700
     64 H271         1.6770     4.8660     5.5600 hc         1 C1I       0.028200
     65 H272        -0.0840     4.6630     5.3270 hc         1 C1I       0.028200
     66 H30          1.4610     4.5200    11.1220 ha         1 C1I       0.113000
     67 H38          2.9870     6.0620     7.4590 ha         1 C1I       0.121000
     68 H32          2.4370     5.3270    13.2830 h4         1 C1I      -0.017900
     69 H34          5.7030     7.8990    13.2670 h4         1 C1I      -0.021900
     70 H35          5.7250     8.0480    10.8300 ha         1 C1I       0.115000
     71 H37          4.6930     7.3480     8.6420 ha         1 C1I       0.110000
@<TRIPOS>BOND
     1     1     2 1   
     2     1    36 1   
     3     1    37 1   
     4     1    38 1   
     5     2     3 1   
     6     2     4 1   
     7     3    39 1   
     8     3    40 1   
     9     3    41 1   
    10     4     5 1   
    11     4    16 1   
    12     4    42 1   
    13     5     6 1   
    14     5    43 1   
    15     5    44 1   
    16     6     7 1   
    17     6    10 1   
    18     6    13 1   
    19     7     8 1   
    20     7    46 1   
    21     7    47 1   
    22     8     9 1   
    23     8    48 1   
    24     8    49 1   
    25     9    10 1   
    26     9    11 1   
    27     9    25 1   
    28    11    12 1   
    29    11    18 2   
    30    12    13 2   
    31    12    51 1   
    32    13    14 1   
    33    14    15 1   
    34    14    16 1   
    35    14    53 1   
    36    15    54 1   
    37    16    17 1   
    38    16    45 1   
    39    17    55 1   
    40    18    19 1   
    41    18    52 1   
    42    19    20 1   
    43    19    56 1   
    44    19    57 1   
    45    20    21 1   
    46    20    22 1   
    47    20    25 1   
    48    21    58 1   
    49    21    59 1   
    50    21    60 1   
    51    22    23 1   
    52    22    26 1   
    53    22    61 1   
    54    23    24 1   
    55    23    62 1   
    56    23    63 1   
    57    24    25 1   
    58    24    64 1   
    59    24    65 1   
    60    25    50 1   
    61    26    27 ar  
    62    26    35 ar  
    63    27    28 ar  
    64    27    66 1   
    65    28    29 ar  
    66    28    33 ar  
    67    29    30 ar  
    68    29    68 1   
    69    30    31 ar  
    70    31    32 ar  
    71    31    69 1   
    72    32    33 ar  
    73    32    70 1   
    74    33    34 ar  
    75    34    35 ar  
    76    34    71 1   
    77    35    67 1   
@<TRIPOS>SUBSTRUCTURE
     1 C1I         1 TEMP              0 ****  ****    0 ROOT
