@<TRIPOS>MOLECULE
molecule
   50    49     1     0     0
SMALL
bcc


@<TRIPOS>ATOM
      1 N            0.0000     0.0000     0.0000 nz         1 C1J      -0.802600
      2 CA           1.4690     0.0000     0.0000 c3         1 C1J       0.040500
      3 C            1.9720    -1.2310    -0.7100 c          1 C1J       0.867600
      4 O            3.2250    -1.2650    -1.1880 o          1 C1J      -0.767300
      5 CB           1.9800     0.0000     1.4430 c3         1 C1J      -0.219400
      6 CG           1.5740     1.3080     2.1260 c3         1 C1J      -0.087400
      7 CD           2.0840     1.3080     3.5690 c3         1 C1J       0.270800
      8 NE           1.6970     2.5600     4.2240 nu         1 C1J      -0.904200
      9 CZ           2.0470     2.7880     5.5340 c2         1 C1J       0.860100
     10 NH1          2.7240     1.8900     6.1940 n2         1 C1J      -0.968100
     11 NH2          1.6830     3.9620     6.1480 nu         1 C1J      -0.946200
     12 C01          1.5340     5.5760     7.9800 c3         1 C1J      -0.096400
     13 C02          2.0570     4.2060     7.5440 c3         1 C1J       0.241800
     14 C03          1.9240     5.8290     9.4380 c3         1 C1J      -0.079400
     15 C04          1.4000     7.1990     9.8750 c3         1 C1J      -0.081400
     16 C05          1.7910     7.4530    11.3320 c3         1 C1J      -0.082400
     17 C06          1.2670     8.8230    11.7690 c3         1 C1J      -0.081400
     18 C07          1.6580     9.0760    13.2260 c3         1 C1J      -0.084400
     19 C08          1.1350    10.4460    13.6630 c3         1 C1J      -0.092100
     20 H1          -0.3340    -0.5640     0.7570 hn         1 C1J       0.438467
     21 H2          -0.3340    -0.3730    -0.8670 hn         1 C1J       0.438467
     22 H4           1.8300     0.8840    -0.5110 hx         1 C1J       0.078700
     23 H6           2.3660     0.7170     0.7280 hc         1 C1J       0.125700
     24 H7           2.8730    -0.5330     1.7440 hc         1 C1J       0.125700
     25 H8           2.0070     2.1440     1.5910 hc         1 C1J       0.022700
     26 H9           0.4950     1.3970     2.1240 hc         1 C1J       0.022700
     27 H10          1.6510     0.4720     4.1050 h1         1 C1J       0.066200
     28 H11          3.1630     1.2180     3.5710 h1         1 C1J       0.066200
     29 H12          1.1790     3.2510     3.7170 hn         1 C1J       0.426800
     30 H13          2.9790     2.0560     7.1470 hn         1 C1J       0.403400
     31 H14          1.1640     4.6520     5.6410 hn         1 C1J       0.419800
     32 H15          1.9670     6.3450     7.3520 hc         1 C1J       0.047200
     33 H16          0.4550     5.5980     7.8860 hc         1 C1J       0.047200
     34 H17          3.1360     4.1840     7.6380 h1         1 C1J       0.043700
     35 H18          1.6240     3.4370     8.1730 h1         1 C1J       0.043700
     36 H19          3.0030     5.8080     9.5320 hc         1 C1J       0.046200
     37 H20          1.4910     5.0600    10.0660 hc         1 C1J       0.046200
     38 H21          0.3210     7.2200     9.7810 hc         1 C1J       0.041700
     39 H22          1.8330     7.9680     9.2460 hc         1 C1J       0.041700
     40 H23          1.3590     6.6840    11.9610 hc         1 C1J       0.042700
     41 H24          2.8700     7.4320    11.4260 hc         1 C1J       0.042700
     42 H25          0.1880     8.8440    11.6750 hc         1 C1J       0.041200
     43 H26          1.7000     9.5920    11.1400 hc         1 C1J       0.041200
     44 H27          2.7370     9.0550    13.3200 hc         1 C1J       0.040700
     45 H28          1.2260     8.3070    13.8550 hc         1 C1J       0.040700
     46 H29          0.0560    10.4700    13.5620 hc         1 C1J       0.033033
     47 H30          1.4040    10.6230    14.6970 hc         1 C1J       0.033033
     48 H31          1.5730    11.2160    13.0390 hc         1 C1J       0.033033
     49 O1           1.2450    -2.1870    -0.8490 o          1 C1J      -0.767300
     50 HN3         -0.3340     0.9380     0.1050 hn         1 C1J       0.438467
@<TRIPOS>BOND
     1    10     9 2
     2     9    11 1
     3     9     8 1
     4    11    13 1
     5     4     3 1
     6     7     8 1
     7     7     6 1
     8     5     6 1
     9     5     2 1
    10    13    12 1
    11     3     2 1
    12     2     1 1
    13    14    12 1
    14    14    15 1
    15    15    16 1
    16    16    17 1
    17    17    18 1
    18    18    19 1
    19     1    20 1
    20     1    21 1
    21     2    22 1
    22     5    23 1
    23     5    24 1
    24     6    25 1
    25     6    26 1
    26     7    27 1
    27     7    28 1
    28     8    29 1
    29    10    30 1
    30    11    31 1
    31    12    32 1
    32    12    33 1
    33    13    34 1
    34    13    35 1
    35    14    36 1
    36    14    37 1
    37    15    38 1
    38    15    39 1
    39    16    40 1
    40    16    41 1
    41    17    42 1
    42    17    43 1
    43    18    44 1
    44    18    45 1
    45    19    46 1
    46    19    47 1
    47    19    48 1
    48     3    49 1
    49    50     1 1
@<TRIPOS>SUBSTRUCTURE
     1 C1J         1 TEMP              0 ****  ****    0 ROOT
