@<TRIPOS>MOLECULE
C1J
   50    49     1     0     0
SMALL
bcc


@<TRIPOS>ATOM
      1 N            0.0000     0.0000     0.0000 nz         1 C1J       0.007400
      2 CA           1.4690     0.0000     0.0000 c3         1 C1J      -0.107500
      3 C            1.9720    -1.2310    -0.7100 c          1 C1J       0.948600
      4 O            3.2250    -1.2650    -1.1880 o          1 C1J      -0.802800
      5 CB           1.9800     0.0000     1.4430 c3         1 C1J      -0.194400
      6 CG           1.5740     1.3080     2.1260 c3         1 C1J       0.004600
      7 CD           2.0840     1.3080     3.5690 c3         1 C1J       0.185800
      8 NE           1.6970     2.5600     4.2240 nu         1 C1J      -0.569200
      9 CZ           2.0470     2.7880     5.5340 c2         1 C1J       0.564100
     10 NH1          2.7240     1.8900     6.1940 n2         1 C1J      -0.867100
     11 NH2          1.6830     3.9620     6.1480 nu         1 C1J      -0.489200
     12 C01          1.5340     5.5760     7.9800 c3         1 C1J      -0.044400
     13 C02          2.0570     4.2060     7.5440 c3         1 C1J       0.182800
     14 C03          1.9240     5.8290     9.4380 c3         1 C1J      -0.022400
     15 C04          1.4000     7.1990     9.8750 c3         1 C1J      -0.029400
     16 C05          1.7910     7.4530    11.3320 c3         1 C1J      -0.029400
     17 C06          1.2670     8.8230    11.7690 c3         1 C1J      -0.029400
     18 C07          1.6580     9.0760    13.2260 c3         1 C1J      -0.028400
     19 C08          1.1350    10.4460    13.6630 c3         1 C1J       0.005900
     20 H1          -0.3340    -0.7560    -0.5650 hn         1 C1J       0.222800
     21 H2          -0.3340    -0.1120     0.9370 hn         1 C1J       0.222800
     22 H4           1.8300     0.8840    -0.5110 hx         1 C1J       0.064700
     23 H6           2.3660     0.7170     0.7280 hc         1 C1J       0.100200
     24 H7           2.8730    -0.5340     1.7440 hc         1 C1J       0.100200
     25 H8           0.4950     1.3970     2.1240 hc         1 C1J      -0.003300
     26 H9           2.0070     2.1440     1.5910 hc         1 C1J      -0.003300
     27 H10          1.6510     0.4720     4.1050 h1         1 C1J       0.027700
     28 H11          3.1630     1.2180     3.5710 h1         1 C1J       0.027700
     29 H12          1.1680     3.2450     3.7210 hn         1 C1J       0.283800
     30 H13          2.9890     1.0340     5.7460 hn         1 C1J       0.334400
     31 H14          1.1600     4.6500     5.6430 hn         1 C1J       0.280800
     32 H15          0.4550     5.5980     7.8860 hc         1 C1J       0.014200
     33 H16          1.9670     6.3450     7.3520 hc         1 C1J       0.014200
     34 H17          3.1360     4.1840     7.6380 h1         1 C1J       0.028200
     35 H18          1.6240     3.4370     8.1730 h1         1 C1J       0.028200
     36 H19          3.0030     5.8080     9.5320 hc         1 C1J       0.019700
     37 H20          1.4910     5.0600    10.0660 hc         1 C1J       0.019700
     38 H21          0.3210     7.2200     9.7810 hc         1 C1J       0.013700
     39 H22          1.8330     7.9680     9.2460 hc         1 C1J       0.013700
     40 H23          1.3590     6.6840    11.9610 hc         1 C1J       0.016200
     41 H24          2.8700     7.4320    11.4260 hc         1 C1J       0.016200
     42 H25          0.1880     8.8440    11.6750 hc         1 C1J       0.014200
     43 H26          1.7000     9.5920    11.1400 hc         1 C1J       0.014200
     44 H27          1.2260     8.3070    13.8550 hc         1 C1J       0.012700
     45 H28          2.7370     9.0550    13.3200 hc         1 C1J       0.012700
     46 H29          0.0540    10.4630    13.5820 hc         1 C1J       0.000033
     47 H30          1.4230    10.6320    14.6910 hc         1 C1J       0.000033
     48 H31          1.5560    11.2140    13.0250 hc         1 C1J       0.000033
     49 O1           1.2450    -2.1870    -0.8490 o          1 C1J      -0.802800
     50 HN3         -0.3340     0.8650    -0.3770 hn         1 C1J       0.222800
@<TRIPOS>BOND
     1     1     2 1   
     2     1    20 1   
     3     1    21 1   
     4     1    50 1   
     5     2     3 1   
     6     2     5 1   
     7     2    22 1   
     8     3     4 1   
     9     3    49 1   
    10     5     6 1   
    11     5    23 1   
    12     5    24 1   
    13     6     7 1   
    14     6    25 1   
    15     6    26 1   
    16     7     8 1   
    17     7    27 1   
    18     7    28 1   
    19     8     9 1   
    20     8    29 1   
    21     9    10 2   
    22     9    11 1   
    23    10    30 1   
    24    11    13 1   
    25    11    31 1   
    26    12    13 1   
    27    12    14 1   
    28    12    32 1   
    29    12    33 1   
    30    13    34 1   
    31    13    35 1   
    32    14    15 1   
    33    14    36 1   
    34    14    37 1   
    35    15    16 1   
    36    15    38 1   
    37    15    39 1   
    38    16    17 1   
    39    16    40 1   
    40    16    41 1   
    41    17    18 1   
    42    17    42 1   
    43    17    43 1   
    44    18    19 1   
    45    18    44 1   
    46    18    45 1   
    47    19    46 1   
    48    19    47 1   
    49    19    48 1   
@<TRIPOS>SUBSTRUCTURE
     1 C1J         1 TEMP              0 ****  ****    0 ROOT
