@<TRIPOS>MOLECULE
C1K
   40    41     1     0     0
SMALL
bcc


@<TRIPOS>ATOM
      1 CAI          0.0000     0.0000     0.0000 c3         1 C1K      -0.025400
      2 CAF          1.5300     0.0000     0.0000 c3         1 C1K      -0.021900
      3 CAE          2.0400     0.0000     1.4440 c3         1 C1K      -0.025400
      4 CAG          1.5290     1.2500     2.1640 c3         1 C1K      -0.021900
      5 CAJ         -0.0010     1.2500     2.1640 c3         1 C1K      -0.025400
      6 CAL         -0.5100     1.2490     0.7210 c3         1 C1K       0.107500
      7 NAK         -1.9790     1.2490     0.7210 n7         1 C1K      -0.587200
      8 CAQ         -2.5060     2.6150     0.8400 c3         1 C1K       0.117500
      9 CAO         -2.6110     3.2650    -0.5550 c3         1 C1K       0.142100
     10 OAD         -1.4820     4.1040    -0.8030 oh         1 C1K      -0.584800
     11 CAM         -3.9080     4.1080    -0.4840 c3         1 C1K       0.121100
     12 OAB         -4.4430     4.3240    -1.7910 oh         1 C1K      -0.589800
     13 CAN         -4.8540     3.2120     0.3540 c3         1 C1K       0.180100
     14 OAC         -5.8680     4.0020     0.9770 oh         1 C1K      -0.574800
     15 CAP         -3.9310     2.5820     1.4180 c3         1 C1K      -0.061700
     16 CAH         -4.3540     1.1370     1.6880 c3         1 C1K       0.225400
     17 OAA         -5.6300     1.1250     2.3320 oh         1 C1K      -0.593800
     18 HAI1        -0.3600     0.0020    -1.0220 hc         1 C1K       0.018200
     19 HAI2        -0.3600    -0.8840     0.5130 hc         1 C1K       0.018200
     20 HAF1         1.8900     0.8860    -0.5090 hc         1 C1K       0.013700
     21 HAF2         1.8900    -0.8860    -0.5090 hc         1 C1K       0.013700
     22 HAL         -0.1440     2.1320     0.2110 h1         1 C1K       0.031700
     23 HAE1         3.1230     0.0020     1.4430 hc         1 C1K       0.013200
     24 HAE2         1.6750    -0.8830     1.9540 hc         1 C1K       0.013200
     25 HAG1         1.8890     2.1330     1.6500 hc         1 C1K       0.013700
     26 HAG2         1.8890     1.2480     3.1860 hc         1 C1K       0.013700
     27 HAJ1        -0.3610     0.3640     2.6730 hc         1 C1K       0.018200
     28 HAJ2        -0.3610     2.1360     2.6720 hc         1 C1K       0.018200
     29 HAK         -2.3120     0.8360    -0.1270 hn         1 C1K       0.262800
     30 HAQ         -1.8640     3.2120     1.4770 h1         1 C1K       0.060700
     31 HAO         -2.6990     2.5030    -1.3200 h1         1 C1K       0.021700
     32 HAP         -3.9720     3.1620     2.3320 hc         1 C1K       0.058700
     33 HAD         -1.4140     4.2760    -1.7280 ho         1 C1K       0.395000
     34 HAM         -3.7240     5.0480     0.0220 h1         1 C1K       0.037700
     35 HAB         -4.5580     5.2490    -1.9350 ho         1 C1K       0.395000
     36 HAN         -5.2930     2.4420    -0.2680 h1         1 C1K       0.023700
     37 HAC         -6.6690     3.9320     0.4840 ho         1 C1K       0.392000
     38 HAH1        -4.4180     0.5980     0.7510 h1         1 C1K      -0.001300
     39 HAH2        -3.6220     0.6600     2.3290 h1         1 C1K      -0.001300
     40 HAA         -5.7780     0.2790     2.7220 ho         1 C1K       0.387000
@<TRIPOS>BOND
     1     1     2 1   
     2     1     6 1   
     3     1    18 1   
     4     1    19 1   
     5     2     3 1   
     6     2    20 1   
     7     2    21 1   
     8     3     4 1   
     9     3    23 1   
    10     3    24 1   
    11     4     5 1   
    12     4    25 1   
    13     4    26 1   
    14     5     6 1   
    15     5    27 1   
    16     5    28 1   
    17     6     7 1   
    18     6    22 1   
    19     7     8 1   
    20     7    29 1   
    21     8     9 1   
    22     8    15 1   
    23     8    30 1   
    24     9    10 1   
    25     9    11 1   
    26     9    31 1   
    27    10    33 1   
    28    11    12 1   
    29    11    13 1   
    30    11    34 1   
    31    12    35 1   
    32    13    14 1   
    33    13    15 1   
    34    13    36 1   
    35    14    37 1   
    36    15    16 1   
    37    15    32 1   
    38    16    17 1   
    39    16    38 1   
    40    16    39 1   
    41    17    40 1   
@<TRIPOS>SUBSTRUCTURE
     1 C1K         1 TEMP              0 ****  ****    0 ROOT
