@<TRIPOS>MOLECULE
molecule
   40    41     1     0     0
SMALL
bcc


@<TRIPOS>ATOM
      1 CAI          0.0000     0.0000     0.0000 c3         1 C1K      -0.075400
      2 CAF          1.5300     0.0000     0.0000 c3         1 C1K      -0.079400
      3 CAE          2.0400     0.0000     1.4440 c3         1 C1K      -0.080400
      4 CAG          1.5290     1.2500     2.1640 c3         1 C1K      -0.079400
      5 CAJ         -0.0010     1.2500     2.1640 c3         1 C1K      -0.075400
      6 CAL         -0.5100     1.2490     0.7210 c3         1 C1K       0.158500
      7 NAK         -1.9790     1.2490     0.7210 n7         1 C1K      -0.816200
      8 CAQ         -2.5060     2.6150     0.8400 c3         1 C1K       0.170500
      9 CAO         -2.6110     3.2650    -0.5550 c3         1 C1K       0.099100
     10 OAD         -1.4820     4.1040    -0.8030 oh         1 C1K      -0.604800
     11 CAM         -3.9080     4.1080    -0.4840 c3         1 C1K       0.082100
     12 OAB         -4.4430     4.3240    -1.7910 oh         1 C1K      -0.610800
     13 CAN         -4.8540     3.2120     0.3540 c3         1 C1K       0.142100
     14 OAC         -5.8680     4.0020     0.9770 oh         1 C1K      -0.592800
     15 CAP         -3.9310     2.5820     1.4180 c3         1 C1K      -0.064700
     16 CAH         -4.3540     1.1370     1.6880 c3         1 C1K       0.155400
     17 OAA         -5.6300     1.1250     2.3320 oh         1 C1K      -0.614800
     18 HAI1        -0.3600     0.0020    -1.0220 hc         1 C1K       0.045700
     19 HAI2        -0.3600    -0.8840     0.5130 hc         1 C1K       0.045700
     20 HAF1         1.8900     0.8860    -0.5090 hc         1 C1K       0.042450
     21 HAF2         1.8900    -0.8860    -0.5090 hc         1 C1K       0.042450
     22 HAL         -0.1440     2.1320     0.2110 h1         1 C1K       0.046700
     23 HAE1         3.1230     0.0020     1.4430 hc         1 C1K       0.041200
     24 HAE2         1.6750    -0.8830     1.9540 hc         1 C1K       0.041200
     25 HAG1         1.8890     2.1330     1.6500 hc         1 C1K       0.042450
     26 HAG2         1.8890     1.2480     3.1860 hc         1 C1K       0.042450
     27 HAJ1        -0.3610     0.3640     2.6730 hc         1 C1K       0.045700
     28 HAJ2        -0.3610     2.1360     2.6720 hc         1 C1K       0.045700
     29 HAK         -2.3120     0.8360    -0.1270 hn         1 C1K       0.355800
     30 HAQ         -1.8640     3.2120     1.4770 h1         1 C1K       0.089700
     31 HAO         -2.6990     2.5030    -1.3200 h1         1 C1K       0.050700
     32 HAP         -3.9720     3.1620     2.3320 hc         1 C1K       0.089700
     33 HAD         -1.4140     4.2760    -1.7280 ho         1 C1K       0.408000
     34 HAM         -3.7240     5.0480     0.0220 h1         1 C1K       0.071700
     35 HAB         -4.5580     5.2490    -1.9350 ho         1 C1K       0.408000
     36 HAN         -5.2930     2.4420    -0.2680 h1         1 C1K       0.056700
     37 HAC         -6.6690     3.9320     0.4840 ho         1 C1K       0.407000
     38 HAH1        -4.4180     0.5980     0.7510 h1         1 C1K       0.033200
     39 HAH2        -3.6220     0.6600     2.3290 h1         1 C1K       0.033200
     40 HAA         -5.7780     0.2790     2.7220 ho         1 C1K       0.400000
@<TRIPOS>BOND
     1     1     2 1
     2     1     6 1
     3     2     3 1
     4     3     4 1
     5     5     4 1
     6     5     6 1
     7     6     7 1
     8     7     8 1
     9     8     9 1
    10     8    15 1
    11     9    10 1
    12     9    11 1
    13    11    12 1
    14    11    13 1
    15    13    14 1
    16    13    15 1
    17    15    16 1
    18    16    17 1
    19     1    18 1
    20     1    19 1
    21     2    20 1
    22     2    21 1
    23     6    22 1
    24     3    23 1
    25     3    24 1
    26     4    25 1
    27     4    26 1
    28     5    27 1
    29     5    28 1
    30     7    29 1
    31     8    30 1
    32     9    31 1
    33    15    32 1
    34    10    33 1
    35    11    34 1
    36    12    35 1
    37    13    36 1
    38    14    37 1
    39    16    38 1
    40    16    39 1
    41    17    40 1
@<TRIPOS>SUBSTRUCTURE
     1 C1K         1 TEMP              0 ****  ****    0 ROOT
