@<TRIPOS>MOLECULE
C1L
   46    49     1     0     0
SMALL
bcc


@<TRIPOS>ATOM
      1 C5           0.0000     0.0000     0.0000 ca         1 C1L      -0.158000
      2 C14          0.0140     0.0020    -2.4090 ca         1 C1L      -0.175000
      3 C2           1.4060     0.0000     0.0000 ca         1 C1L      -0.142300
      4 C3           3.5340     0.0010     1.0890 ca         1 C1L      -0.330200
      5 C9           1.3710     0.0030    -2.4700 ca         1 C1L      -0.102600
      6 C1           2.1460     0.0000     1.1890 ca         1 C1L       0.029700
      7 C4           2.1220     0.0020    -1.2780 ca         1 C1L       0.397600
      8 C10         -0.6680    -0.0000    -1.1890 ca         1 C1L       0.144100
      9 C7           4.6100     0.0010     2.0790 cc         1 C1L       0.402900
     10 C6           4.1610     0.0040    -0.1810 ca         1 C1L       0.285800
     11 C20          1.0730     1.3880     4.4780 c3         1 C1L       0.100300
     12 C24          0.3830     2.1530     2.2890 c3         1 C1L       0.100300
     13 C21          1.0540     2.8340     4.9770 c3         1 C1L       0.215400
     14 C23          0.3700     3.5930     2.8110 c3         1 C1L       0.215400
     15 C17          2.0690     0.0040    -3.8060 c3         1 C1L       0.068200
     16 C13          4.4420    -0.0000     3.5770 c3         1 C1L       0.000600
     17 C16         -2.6790     0.0010    -2.4600 c3         1 C1L       0.243700
     18 C18          1.4620    -0.0010     2.5330 c3         1 C1L       0.185100
     19 N8           3.4540     0.0040    -1.2970 nb         1 C1L      -0.590000
     20 N11          5.5130     0.0050     0.0560 na         1 C1L       0.282200
     21 N12          5.7410     0.0030     1.4350 nd         1 C1L      -0.617100
     22 N19          1.3790     1.3740     3.0410 n3         1 C1L      -0.530600
     23 O22          0.1030     3.5840     4.2150 os         1 C1L      -0.411600
     24 O15         -2.0270    -0.0000    -1.1880 os         1 C1L      -0.310900
     25 H5          -0.5470    -0.0010     0.9350 ha         1 C1L       0.130000
     26 H14         -0.5550     0.0020    -3.3310 ha         1 C1L       0.124000
     27 H20          1.8330     0.8320     5.0140 h1         1 C1L       0.022450
     28 H20A         0.1030     0.9360     4.6450 h1         1 C1L       0.022450
     29 H24          0.6440     2.1530     1.2380 h1         1 C1L       0.022450
     30 H24A        -0.5970     1.7120     2.4250 h1         1 C1L       0.022450
     31 H21          0.7710     2.8510     6.0230 h1         1 C1L       0.013200
     32 H21A         2.0380     3.2710     4.8560 h1         1 C1L       0.013200
     33 H23         -0.4030     4.1550     2.3000 h1         1 C1L       0.013200
     34 H23A         1.3360     4.0510     2.6300 h1         1 C1L       0.013200
     35 H17          1.3320    -0.0310    -4.5990 hc         1 C1L       0.012367
     36 H17A         2.6620     0.9060    -3.9020 hc         1 C1L       0.012367
     37 H17B         2.7170    -0.8620    -3.8760 hc         1 C1L       0.012367
     38 H13          4.0100     0.9410     3.8930 hc         1 C1L       0.018700
     39 H13A         3.7860    -0.8130     3.8660 hc         1 C1L       0.018700
     40 H13B         5.4080    -0.1310     4.0490 hc         1 C1L       0.018700
     41 H16         -3.7520     0.0040    -2.3160 h1         1 C1L      -0.002300
     42 H16A        -2.3910    -0.8840    -3.0140 h1         1 C1L      -0.002300
     43 H16B        -2.3870     0.8850    -3.0140 h1         1 C1L      -0.002300
     44 H18          2.0310    -0.6090     3.2270 h1         1 C1L       0.027200
     45 H18A         0.4640    -0.4090     2.4300 h1         1 C1L       0.027200
     46 HN11         6.2250     0.0060    -0.6480 hn         1 C1L       0.159700
@<TRIPOS>BOND
     1     1     3 ar  
     2     1     8 ar  
     3     1    25 1   
     4     2     5 ar  
     5     2     8 ar  
     6     2    26 1   
     7     3     6 ar  
     8     3     7 ar  
     9     4     6 ar  
    10     4     9 1   
    11     4    10 ar  
    12     5     7 ar  
    13     5    15 1   
    14     6    18 1   
    15     7    19 ar  
    16     8    24 1   
    17     9    16 1   
    18     9    21 2   
    19    10    19 ar  
    20    10    20 1   
    21    11    13 1   
    22    11    22 1   
    23    11    27 1   
    24    11    28 1   
    25    12    14 1   
    26    12    22 1   
    27    12    29 1   
    28    12    30 1   
    29    13    23 1   
    30    13    31 1   
    31    13    32 1   
    32    14    23 1   
    33    14    33 1   
    34    14    34 1   
    35    15    35 1   
    36    15    36 1   
    37    15    37 1   
    38    16    38 1   
    39    16    39 1   
    40    16    40 1   
    41    17    24 1   
    42    17    41 1   
    43    17    42 1   
    44    17    43 1   
    45    18    22 1   
    46    18    44 1   
    47    18    45 1   
    48    20    21 1   
    49    20    46 1   
@<TRIPOS>SUBSTRUCTURE
     1 C1L         1 TEMP              0 ****  ****    0 ROOT
