@<TRIPOS>MOLECULE
C1M
   17    18     1     0     0
SMALL
bcc


@<TRIPOS>ATOM
      1 Cl1         0.0130   -0.0020    0.0040 cl        1 C1M     -0.073400
      2 C2          1.7090   -0.0020    0.0070 ca        1 C1M      0.017400
      3 C3          2.4060    0.0000    1.2190 ca        1 C1M     -0.110000
      4 C4          3.7970    0.0010    1.2280 ca        1 C1M     -0.118500
      5 C5          4.5100   -0.0020    0.0100 ca        1 C1M      0.008800
      6 C6          3.7980   -0.0040   -1.2080 ca        1 C1M     -0.118500
      7 C7          2.4070   -0.0040   -1.2040 ca        1 C1M     -0.110000
      8 N8          5.9300   -0.0010    0.0030 na        1 C1M     -0.015500
      9 C9          6.7830   -0.0040   -1.1250 cc        1 C1M      0.391400
     10 N10         8.0470   -0.0030   -0.6360 nd        1 C1M     -0.370000
     11 N11         7.9420    0.0010    0.6990 nd        1 C1M     -0.042000
     12 N12         6.7330    0.0020    1.1030 nc        1 C1M     -0.177800
     13 H3          1.8580    0.0020    2.1750 ha        1 C1M      0.158000
     14 H7          1.8620   -0.0060   -2.1610 ha        1 C1M      0.158000
     15 H4          4.3240    0.0030    2.1960 ha        1 C1M      0.156500
     16 H6          4.3230   -0.0060   -2.1760 ha        1 C1M      0.156500
     17 H9          6.4600   -0.0070   -2.1690 h5        1 C1M      0.087100
@<TRIPOS>BOND
     1    1    2 1   
     2    2    3 ar  
     3    2    7 ar  
     4    3    4 ar  
     5    3   13 1   
     6    4    5 ar  
     7    4   15 1   
     8    5    6 ar  
     9    5    8 1   
    10    6    7 ar  
    11    6   16 1   
    12    7   14 1   
    13    8    9 1   
    14    8   12 1   
    15    9   10 2   
    16    9   17 1   
    17   10   11 1   
    18   11   12 2   
@<TRIPOS>SUBSTRUCTURE
     1 C1M         1 TEMP              0 ****  ****    0 ROOT
