@<TRIPOS>MOLECULE
molecule
   17    18     1     0     0
SMALL
bcc


@<TRIPOS>ATOM
      1 Cl1          0.0000     0.0000     0.0000 cl         1 C1M      -0.091400
      2 C2           1.7360     0.0000     0.0000 ca         1 C1M       0.027400
      3 C3           2.4260     0.0000     1.1990 ca         1 C1M      -0.103000
      4 C4           3.8070     0.0000     1.2010 ca         1 C1M      -0.121500
      5 C5           4.5030    -0.0020     0.0000 ca         1 C1M       0.012800
      6 C6           3.8080    -0.0020    -1.2020 ca         1 C1M      -0.121500
      7 C7           2.4270    -0.0080    -1.1990 ca         1 C1M      -0.103000
      8 N8           5.9060    -0.0020    -0.0000 na         1 C1M       0.002500
      9 C9           6.7250    -0.0040    -1.0730 cc         1 C1M       0.410400
     10 N10          7.9540    -0.0030    -0.6240 nd         1 C1M      -0.407000
     11 N11          7.9650    -0.0000     0.6600 nd         1 C1M       0.001000
     12 N12          6.7600     0.0060     1.1170 nc         1 C1M      -0.210800
     13 H3           1.8830     0.0020     2.1360 ha         1 C1M       0.156500
     14 H7           1.8840    -0.0080    -2.1370 ha         1 C1M       0.156500
     15 H4           4.3470     0.0000     2.1400 ha         1 C1M       0.155000
     16 H6           4.3480    -0.0060    -2.1410 ha         1 C1M       0.155000
     17 H9           6.4220    -0.0060    -2.1130 h5         1 C1M       0.082100
@<TRIPOS>BOND
     1     1     2 1
     2     2     3 ar
     3     2     7 ar
     4     3     4 ar
     5     4     5 ar
     6     5     6 ar
     7     5     8 1
     8     6     7 ar
     9     8     9 1
    10     8    12 1
    11     9    10 2
    12    10    11 1
    13    11    12 2
    14     3    13 1
    15     7    14 1
    16     4    15 1
    17     6    16 1
    18     9    17 1
@<TRIPOS>SUBSTRUCTURE
     1 C1M         1 TEMP              0 ****  ****    0 ROOT
