@<TRIPOS>MOLECULE
C1N
   80    81     1     0     0
SMALL
bcc


@<TRIPOS>ATOM
      1 C1           0.0000     0.0000     0.0000 ca         1 C1N      -0.073000
      2 C2           1.3950     0.0000     0.0000 ca         1 C1N      -0.106000
      3 C3           2.0920     0.0000     1.2090 ca         1 C1N      -0.090000
      4 C4           1.3930     0.0010     2.4170 ca         1 C1N      -0.106000
      5 C5          -0.0020     0.0020     2.4160 ca         1 C1N      -0.073000
      6 C6          -0.6890     0.0010     1.2070 ca         1 C1N      -0.122300
      7 C7          -2.1900     0.0020     1.2060 c3         1 C1N       0.290700
      8 O8          -2.6570     1.3560     1.2050 os         1 C1N      -0.417900
      9 C9          -4.0130     1.5180     1.2040 c          1 C1N       0.690100
     10 O10         -4.8250     0.5980     1.2040 o          1 C1N      -0.631000
     11 N11         -4.3250     2.8650     1.2030 ns         1 C1N      -0.186900
     12 C12         -5.6700     3.3770     1.2020 c3         1 C1N      -0.051300
     13 C14         -8.5830     3.1630     2.0110 c3         1 C1N      -0.025100
     14 C15         -7.8070     5.5420     2.0490 c3         1 C1N      -0.025100
     15 C16         -5.6560     4.6720     0.3960 c          1 C1N       0.593100
     16 C17         -6.1920     3.6420     2.6200 c3         1 C1N      -0.036400
     17 O18         -4.7040     5.4490     0.3940 o          1 C1N      -0.621100
     18 N19         -6.8120     4.8330    -0.3610 ns         1 C1N      -0.223900
     19 C20         -7.0310     5.9440    -1.2490 c3         1 C1N      -0.060300
     20 C21         -6.5790     5.6400    -2.6830 c3         1 C1N      -0.032400
     21 C22         -6.7580     6.8040    -3.6790 c3         1 C1N      -0.043700
     22 C23         -5.9860     8.0310    -3.1830 c3         1 C1N      -0.014100
     23 C24         -8.2280     7.1710    -3.8880 c3         1 C1N      -0.014100
     24 C25         -8.5250     6.2540    -1.2220 c          1 C1N       0.590100
     25 N26         -8.7910     7.4860    -0.6410 ns         1 C1N      -0.213900
     26 C27        -10.1280     7.9980    -0.4460 c3         1 C1N      -0.060300
     27 C28        -10.6940     7.6560     0.9340 c3         1 C1N       0.019900
     28 O29         -9.3790     5.4690    -1.6310 o          1 C1N      -0.619100
     29 C30        -10.0440     9.5060    -0.6180 c          1 C1N       0.553100
     30 O31         -9.3820    10.2220     0.1340 o          1 C1N      -0.518100
     31 C32        -10.7800    10.0900    -1.7960 c3         1 C1N       0.122900
     32 C33        -12.0920     8.1880     1.1380 ca         1 C1N      -0.127300
     33 C35        -12.2650     9.4550     1.6710 ca         1 C1N      -0.077000
     34 C36        -13.5570     9.9470     1.8610 ca         1 C1N      -0.135000
     35 C37        -14.6590     9.1650     1.5130 ca         1 C1N       0.126100
     36 C38        -14.4680     7.8920     0.9770 ca         1 C1N      -0.135000
     37 C39        -13.1770     7.4000     0.7880 ca         1 C1N      -0.077000
     38 O40        -15.9190     9.6440     1.6980 oh         1 C1N      -0.499100
     39 F1         -10.6470    11.4440    -1.8380 f          1 C1N      -0.198300
     40 H1          -0.5440    -0.0010    -0.9370 ha         1 C1N       0.107000
     41 H2           1.9370    -0.0010    -0.9380 ha         1 C1N       0.104000
     42 H3           3.1750    -0.0000     1.2090 ha         1 C1N       0.102000
     43 H4           1.9340     0.0010     3.3550 ha         1 C1N       0.104000
     44 H5          -0.5470     0.0030     3.3520 ha         1 C1N       0.107000
     45 H71         -2.5520    -0.5060     0.3210 h1         1 C1N       0.012700
     46 H72         -2.5540    -0.5060     2.0900 h1         1 C1N       0.012700
     47 H11         -3.5700     3.5220     1.2020 hn         1 C1N       0.204500
     48 H12         -6.3210     2.6620     0.7130 h1         1 C1N       0.063700
     49 H13         -7.9190     4.2370     3.7340 hc         1 C1N       0.029700
     50 H141        -8.4570     2.1860     2.4620 hc         1 C1N       0.012367
     51 H142        -8.3210     3.1130     0.9620 hc         1 C1N       0.012367
     52 H143        -9.6150     3.4760     2.1120 hc         1 C1N       0.012367
     53 H151        -8.3490     6.1920     2.7240 hc         1 C1N       0.012367
     54 H152        -8.3440     5.4670     1.1110 hc         1 C1N       0.012367
     55 H153        -6.8200     5.9520     1.8680 hc         1 C1N       0.012367
     56 H171        -6.1340     2.7180     3.1830 hc         1 C1N       0.030200
     57 H172        -5.5440     4.3710     3.0920 hc         1 C1N       0.030200
     58 H19         -7.5280     4.1370    -0.2870 hn         1 C1N       0.210500
     59 H20         -6.4850     6.8040    -0.8810 h1         1 C1N       0.061700
     60 H211        -7.1450     4.7910    -3.0460 hc         1 C1N       0.030700
     61 H212        -5.5310     5.3690    -2.6600 hc         1 C1N       0.030700
     62 H22         -6.3430     6.5030    -4.6330 hc         1 C1N       0.029700
     63 H231        -4.9510     7.7610    -3.0140 hc         1 C1N       0.009367
     64 H232        -6.0380     8.8150    -3.9280 hc         1 C1N       0.009367
     65 H233        -6.4240     8.3830    -2.2570 hc         1 C1N       0.009367
     66 H241        -8.5180     7.9270    -3.1670 hc         1 C1N       0.009367
     67 H242        -8.8430     6.2890    -3.7540 hc         1 C1N       0.009367
     68 H243        -8.3650     7.5570    -4.8910 hc         1 C1N       0.009367
     69 H26         -8.0180     8.0470    -0.3410 hn         1 C1N       0.200500
     70 H27        -10.7790     7.5890    -1.2080 h1         1 C1N       0.063700
     71 H281       -10.0460     8.0790     1.6920 hc         1 C1N       0.033700
     72 H282       -10.7110     6.5790     1.0480 hc         1 C1N       0.033700
     73 H321       -11.8310     9.8390    -1.7170 h1         1 C1N       0.033700
     74 H322       -10.3810     9.6660    -2.7090 h1         1 C1N       0.033700
     75 H35        -11.4050    10.0580     1.9390 ha         1 C1N       0.117500
     76 H36        -13.7050    10.9370     2.2770 ha         1 C1N       0.117000
     77 H38        -15.3240     7.2850     0.7070 ha         1 C1N       0.117000
     78 H39        -13.0240     6.4110     0.3720 ha         1 C1N       0.117500
     79 H40        -16.2210     9.4080     2.5600 ho         1 C1N       0.405000
     80 C13         -7.6420     4.1630     2.6890 c3         1 C1N      -0.045700
@<TRIPOS>BOND
     1     1     2 ar  
     2     1     6 ar  
     3     1    40 1   
     4     2     3 ar  
     5     2    41 1   
     6     3     4 ar  
     7     3    42 1   
     8     4     5 ar  
     9     4    43 1   
    10     5     6 ar  
    11     5    44 1   
    12     6     7 1   
    13     7     8 1   
    14     7    45 1   
    15     7    46 1   
    16     8     9 1   
    17     9    10 2   
    18     9    11 1   
    19    11    12 1   
    20    11    47 1   
    21    12    15 1   
    22    12    16 1   
    23    12    48 1   
    24    13    50 1   
    25    13    51 1   
    26    13    52 1   
    27    13    80 1   
    28    14    53 1   
    29    14    54 1   
    30    14    55 1   
    31    14    80 1   
    32    15    17 2   
    33    15    18 1   
    34    16    56 1   
    35    16    57 1   
    36    16    80 1   
    37    18    19 1   
    38    18    58 1   
    39    19    20 1   
    40    19    24 1   
    41    19    59 1   
    42    20    21 1   
    43    20    60 1   
    44    20    61 1   
    45    21    22 1   
    46    21    23 1   
    47    21    62 1   
    48    22    63 1   
    49    22    64 1   
    50    22    65 1   
    51    23    66 1   
    52    23    67 1   
    53    23    68 1   
    54    24    25 1   
    55    24    28 2   
    56    25    26 1   
    57    25    69 1   
    58    26    27 1   
    59    26    29 1   
    60    26    70 1   
    61    27    32 1   
    62    27    71 1   
    63    27    72 1   
    64    29    30 2   
    65    29    31 1   
    66    31    39 1   
    67    31    73 1   
    68    31    74 1   
    69    32    33 ar  
    70    32    37 ar  
    71    33    34 ar  
    72    33    75 1   
    73    34    35 ar  
    74    34    76 1   
    75    35    36 ar  
    76    35    38 1   
    77    36    37 ar  
    78    36    77 1   
    79    37    78 1   
    80    38    79 1   
    81    49    80 1   
@<TRIPOS>SUBSTRUCTURE
     1 C1N         1 TEMP              0 ****  ****    0 ROOT
