@<TRIPOS>MOLECULE
molecule
   76    78     1     0     0
SMALL
bcc


@<TRIPOS>ATOM
      1 N1           0.0000     0.0000     0.0000 ns         1 C1P      -0.592900
      2 C15         -0.6750    -0.5720    -1.0170 c          1 C1P       0.792100
      3 O16         -0.0700    -1.0070    -1.9780 o          1 C1P      -0.667100
      4 N9          -2.0180    -0.6620    -0.9690 n          1 C1P      -0.509800
      5 C14         -2.7670    -1.3780    -2.0130 c3         1 C1P       0.077000
      6 C13         -3.7200    -2.3680    -1.3330 c3         1 C1P       0.119400
      7 O12         -4.4990    -1.6750    -0.3550 os         1 C1P      -0.419600
      8 C11         -3.7320    -1.1040     0.7070 c3         1 C1P       0.119400
      9 C10         -2.7790    -0.0540     0.1340 c3         1 C1P       0.077000
     10 C2           1.4650     0.0000     0.0000 c3         1 C1P       0.061700
     11 C3           1.9670     0.0000     1.4210 c          1 C1P       0.654100
     12 O4           1.2270     0.3220     2.3260 o          1 C1P      -0.619100
     13 N28          3.2390    -0.3570     1.6860 ns         1 C1P      -0.580900
     14 C19          3.6980    -0.4590     3.0730 c3         1 C1P       0.119700
     15 C18          5.2120    -0.2550     3.1270 c3         1 C1P      -0.074400
     16 C17          5.5510     1.1730     2.6930 c3         1 C1P      -0.211600
     17 S33          7.3480     1.4130     2.7560 sy         1 C1P       1.191300
     18 O34          7.8070     1.3960     4.1010 o          1 C1P      -0.617300
     19 O35          7.9910     0.6400     1.7520 o          1 C1P      -0.617300
     20 C32          7.5860     3.0810     2.2380 ca         1 C1P      -0.297500
     21 C36          7.5910     4.1010     3.1700 ca         1 C1P      -0.029500
     22 C37          7.7770     5.4090     2.7640 ca         1 C1P      -0.149500
     23 C29          7.9600     5.6960     1.4240 ca         1 C1P      -0.073000
     24 C30          7.9560     4.6760     0.4910 ca         1 C1P      -0.149500
     25 C31          7.7740     3.3680     0.8990 ca         1 C1P      -0.029500
     26 C20          3.3490    -1.8430     3.6240 c3         1 C1P      -0.093400
     27 C21          1.8290    -1.9990     3.6880 c3         1 C1P      -0.033100
     28 C22          1.4850    -3.3630     4.2310 ca         1 C1P      -0.083300
     29 C23          1.3290    -3.5460     5.5920 ca         1 C1P      -0.126000
     30 C24          1.0150    -4.7960     6.0900 ca         1 C1P      -0.126000
     31 C25          0.8570    -5.8640     5.2270 ca         1 C1P      -0.132000
     32 C26          1.0120    -5.6800     3.8650 ca         1 C1P      -0.126000
     33 C27          1.3220    -4.4300     3.3670 ca         1 C1P      -0.126000
     34 C5           1.9740     1.2490    -0.7210 c3         1 C1P      -0.090400
     35 C6           3.4990     1.1860    -0.8360 c3         1 C1P      -0.092700
     36 C7           3.8940     0.0110    -1.7330 c3         1 C1P      -0.090600
     37 C8           4.0200     2.4890    -1.4430 c3         1 C1P      -0.090600
     38 HN1         -0.5000     0.4540     0.7380 hn         1 C1P       0.333500
     39 H141        -2.0770    -1.9180    -2.6500 h1         1 C1P       0.062950
     40 H142        -3.3370    -0.6700    -2.6010 h1         1 C1P       0.062950
     41 H131        -3.1460    -3.1480    -0.8490 h1         1 C1P       0.056450
     42 H132        -4.3780    -2.8030    -2.0760 h1         1 C1P       0.056450
     43 H111        -3.1590    -1.8830     1.1960 h1         1 C1P       0.056450
     44 H112        -4.3980    -0.6350     1.4210 h1         1 C1P       0.056450
     45 H101        -2.0960     0.2760     0.9080 h1         1 C1P       0.062950
     46 H102        -3.3500     0.7870    -0.2390 h1         1 C1P       0.062950
     47 H2           1.8260    -0.8840    -0.5110 h1         1 C1P       0.096700
     48 H28          3.8550    -0.6060     0.9370 hn         1 C1P       0.324500
     49 H19          3.2100     0.3010     3.6720 h1         1 C1P       0.085700
     50 H18          5.5630    -0.4180     4.1380 hc         1 C1P       0.065200
     51 H17          5.2000     1.3360     1.6810 h1         1 C1P       0.103200
     52 H36          7.4470     3.8760     4.2200 ha         1 C1P       0.150000
     53 H37          7.7800     6.2080     3.4950 ha         1 C1P       0.138000
     54 H29          8.1040     6.7210     1.1050 ha         1 C1P       0.135000
     55 H30          8.1020     4.9010    -0.5580 ha         1 C1P       0.138000
     56 H31          7.7710     2.5690     0.1680 ha         1 C1P       0.150000
     57 H201         3.7630    -2.6050     2.9750 hc         1 C1P       0.051700
     58 H202         3.7650    -1.9520     4.6180 hc         1 C1P       0.051700
     59 H211         1.4150    -1.2370     4.3370 hc         1 C1P       0.061200
     60 H212         1.4130    -1.8910     2.6940 hc         1 C1P       0.061200
     61 H23          1.4530    -2.7090     6.2690 ha         1 C1P       0.129500
     62 H24          0.8930    -4.9390     7.1570 ha         1 C1P       0.128500
     63 H25          0.6120    -6.8440     5.6170 ha         1 C1P       0.128000
     64 H26          0.8860    -6.5170     3.1890 ha         1 C1P       0.128500
     65 H27          1.4430    -4.2860     2.3000 ha         1 C1P       0.129500
     66 H51          1.5390     1.2970    -1.7120 hc         1 C1P       0.063700
     67 H52          1.6910     2.1310    -0.1590 hc         1 C1P       0.063700
     68 H6           3.9300     1.0480     0.1490 hc         1 C1P       0.044700
     69 H71          3.7090    -0.9200    -1.2120 hc         1 C1P       0.038533
     70 H72          4.9470     0.0840    -1.9800 hc         1 C1P       0.038533
     71 H73          3.3070     0.0380    -2.6430 hc         1 C1P       0.038533
     72 H81          5.0850     2.4040    -1.6210 hc         1 C1P       0.038533
     73 H82          3.8340     3.3070    -0.7570 hc         1 C1P       0.038533
     74 H83          3.5110     2.6800    -2.3800 hc         1 C1P       0.038533
     75 H38          5.6950    -0.9590     2.4590 hc         1 C1P       0.065200
     76 H39          5.0690     1.8770     3.3600 h1         1 C1P       0.103200
@<TRIPOS>BOND
     1     1     2 1
     2     1    10 1
     3     1    38 1
     4     2     3 2
     5     2     4 1
     6     4     5 1
     7     4     9 1
     8     5     6 1
     9     5    39 1
    10     5    40 1
    11     6     7 1
    12     6    41 1
    13     6    42 1
    14     7     8 1
    15     8     9 1
    16     8    43 1
    17     8    44 1
    18     9    45 1
    19     9    46 1
    20    10    11 1
    21    10    34 1
    22    10    47 1
    23    11    12 2
    24    11    13 1
    25    13    14 1
    26    13    48 1
    27    14    15 1
    28    14    26 1
    29    14    49 1
    30    15    16 1
    31    15    50 1
    32    16    17 1
    33    16    51 1
    34    17    18 2
    35    17    19 2
    36    17    20 1
    37    20    21 ar
    38    20    25 ar
    39    21    22 ar
    40    21    52 1
    41    22    23 ar
    42    22    53 1
    43    23    24 ar
    44    23    54 1
    45    24    25 ar
    46    24    55 1
    47    25    56 1
    48    26    27 1
    49    26    57 1
    50    26    58 1
    51    27    28 1
    52    27    59 1
    53    27    60 1
    54    28    29 ar
    55    28    33 ar
    56    29    30 ar
    57    29    61 1
    58    30    31 ar
    59    30    62 1
    60    31    32 ar
    61    31    63 1
    62    32    33 ar
    63    32    64 1
    64    33    65 1
    65    34    35 1
    66    34    66 1
    67    34    67 1
    68    35    36 1
    69    35    37 1
    70    35    68 1
    71    36    69 1
    72    36    70 1
    73    36    71 1
    74    37    72 1
    75    37    73 1
    76    37    74 1
    77    15    75 1
    78    16    76 1
@<TRIPOS>SUBSTRUCTURE
     1 C1P         1 TEMP              0 ****  ****    0 ROOT
