@<TRIPOS>MOLECULE
molecule
   28    28     1     0     0
SMALL
bcc


@<TRIPOS>ATOM
      1 C1           0.0000     0.0000     0.0000 c3         1 C1R       0.148800
      2 C2           1.5300     0.0000     0.0000 c3         1 C1R      -0.072900
      3 C3           2.0340     0.0000     1.4470 c3         1 C1R      -0.073700
      4 C4           1.4250     1.1960     2.1860 c3         1 C1R      -0.072900
      5 C5          -0.1000     1.1340     2.0720 c3         1 C1R       0.148800
      6 N6          -0.4960     1.2110     0.6610 n7         1 C1R      -0.800200
      7 C7           3.5600     0.1150     1.4580 c3         1 C1R      -0.075400
      8 C8           4.1710    -1.1400     0.8310 c3         1 C1R      -0.077400
      9 C9           5.6960    -1.0240     0.8420 c3         1 C1R      -0.204400
     10 O12          7.0660    -2.1590    -0.7030 o          1 C1R      -0.522100
     11 C10          6.2980    -2.2600     0.2240 c          1 C1R       0.567900
     12 H11         -0.3590    -0.0230    -1.0220 h1         1 C1R       0.030700
     13 H12         -0.3590    -0.8720     0.5330 h1         1 C1R       0.030700
     14 H21          1.8910     0.8860    -0.5080 hc         1 C1R       0.049950
     15 H22          1.8910    -0.8860    -0.5080 hc         1 C1R       0.049950
     16 H3           1.7310    -0.9180     1.9350 hc         1 C1R       0.047700
     17 H41          1.7820     2.1160     1.7390 hc         1 C1R       0.049950
     18 H42          1.7100     1.1590     3.2300 hc         1 C1R       0.049950
     19 H51         -0.5340     1.9650     2.6130 h1         1 C1R       0.030700
     20 H52         -0.4530     0.2000     2.4920 h1         1 C1R       0.030700
     21 HN6         -1.4940     1.2420     0.5960 hn         1 C1R       0.350800
     22 H71          3.8600     0.9860     0.8880 hc         1 C1R       0.045700
     23 H72          3.9070     0.2140     2.4790 hc         1 C1R       0.045700
     24 H81          3.8700    -2.0110     1.4000 hc         1 C1R       0.046200
     25 H82          3.8230    -1.2390    -0.1910 hc         1 C1R       0.046200
     26 H91          5.9960    -0.1530     0.2720 hc         1 C1R       0.068200
     27 H92          6.0430    -0.9260     1.8630 hc         1 C1R       0.068200
     28 H10          6.0650    -3.2370     0.6310 h4         1 C1R      -0.006800
@<TRIPOS>BOND
     1     1     2 1
     2     1     6 1
     3     1    12 1
     4     1    13 1
     5     2     3 1
     6     2    14 1
     7     2    15 1
     8     3     4 1
     9     3     7 1
    10     3    16 1
    11     4     5 1
    12     4    17 1
    13     4    18 1
    14     5     6 1
    15     5    19 1
    16     5    20 1
    17     6    21 1
    18     7     8 1
    19     7    22 1
    20     7    23 1
    21     8     9 1
    22     8    24 1
    23     8    25 1
    24     9    11 1
    25     9    26 1
    26     9    27 1
    27    10    11 2
    28    11    28 1
@<TRIPOS>SUBSTRUCTURE
     1 C1R         1 TEMP              0 ****  ****    0 ROOT
