@<TRIPOS>MOLECULE
molecule
   22    21     1     0     0
SMALL
bcc


@<TRIPOS>ATOM
      1 O            0.0000     0.0000     0.0000 o          1 C1S      -0.769800
      2 C            1.2080     0.0000     0.0000 c          1 C1S       0.866600
      3 CA           1.9610     0.0000     1.3060 c3         1 C1S      -0.016500
      4 N            1.0800     0.4740     2.3800 nz         1 C1S      -0.797600
      5 CB           2.4330    -1.4200     1.6220 c3         1 C1S      -0.006300
      6 SG           3.3400    -1.4200     3.1930 ss         1 C1S      -0.157100
      7 SD           1.8670    -1.0720     4.5770 ss         1 C1S      -0.289100
      8 CE           1.2040    -2.7300     4.8920 c3         1 C1S       0.062900
      9 CZ           2.2230    -3.5430     5.6490 c2         1 C1S      -0.188200
     10 CH           1.9680    -3.9420     6.8700 c2         1 C1S      -0.183000
     11 OXT          1.8790    -0.0070    -1.1630 o          1 C1S      -0.769800
     12 H1           2.8200     0.6560     1.2270 hx         1 C1S       0.117700
     13 H2           0.4450    -0.2550     2.6370 hn         1 C1S       0.445800
     14 H3           0.5630     1.2700     2.0610 hn         1 C1S       0.445800
     15 H5           1.5740    -2.0770     1.7010 h1         1 C1S       0.118200
     16 H6           3.0830    -1.7700     0.8300 h1         1 C1S       0.118200
     17 H7           0.9820    -3.2150     3.9500 h1         1 C1S       0.084200
     18 H8           0.2970    -2.6500     5.4800 h1         1 C1S       0.084200
     19 H9           3.1670    -3.7970     5.1820 ha         1 C1S       0.146000
     20 H11          2.7010    -4.5260     7.4130 ha         1 C1S       0.120500
     21 H12          1.0240    -3.6880     7.3370 ha         1 C1S       0.120500
     22 HN3          1.6300     0.7240     3.1780 hn         1 C1S       0.445800
@<TRIPOS>BOND
     1    10     9 2
     2     9     8 1
     3     8     7 1
     4     7     6 1
     5     6     5 1
     6     5     3 1
     7     4     3 1
     8     1     2 1
     9     3     2 1
    10     2    11 1
    11     3    12 1
    12     4    13 1
    13     4    14 1
    14     5    15 1
    15     5    16 1
    16     8    17 1
    17     8    18 1
    18     9    19 1
    19    10    20 1
    20    10    21 1
    21    22     4 1
@<TRIPOS>SUBSTRUCTURE
     1 C1S         1 TEMP              0 ****  ****    0 ROOT
