@<TRIPOS>MOLECULE
C1S
   22    21     1     0     0
SMALL
bcc


@<TRIPOS>ATOM
      1 O            0.0000     0.0000     0.0000 o          1 C1S      -0.811800
      2 C            1.2080     0.0000     0.0000 c          1 C1S       0.951600
      3 CA           1.9610     0.0000     1.3060 c3         1 C1S      -0.191500
      4 N            1.0800     0.4740     2.3800 nz         1 C1S       0.020400
      5 CB           2.4330    -1.4200     1.6220 c3         1 C1S       0.075700
      6 SG           3.3400    -1.4200     3.1930 ss         1 C1S      -0.193100
      7 SD           1.8670    -1.0720     4.5770 ss         1 C1S      -0.278100
      8 CE           1.2040    -2.7300     4.8920 c3         1 C1S       0.126900
      9 CZ           2.2230    -3.5430     5.6490 c2         1 C1S      -0.180200
     10 CH           1.9680    -3.9420     6.8700 c2         1 C1S      -0.114000
     11 OXT          1.8790    -0.0070    -1.1630 o          1 C1S      -0.811800
     12 H1           2.8200     0.6560     1.2270 hx         1 C1S       0.101700
     13 H2           0.5630     1.2700     2.0610 hn         1 C1S       0.233133
     14 H3           0.4450    -0.2550     2.6370 hn         1 C1S       0.233133
     15 H5           3.0830    -1.7700     0.8300 h1         1 C1S       0.090200
     16 H6           1.5740    -2.0770     1.7010 h1         1 C1S       0.090200
     17 H7           0.2970    -2.6500     5.4800 h1         1 C1S       0.058700
     18 H8           0.9820    -3.2150     3.9500 h1         1 C1S       0.058700
     19 H9           3.1670    -3.7970     5.1820 ha         1 C1S       0.128000
     20 H11          1.0240    -3.6880     7.3370 ha         1 C1S       0.089500
     21 H12          2.7010    -4.5260     7.4130 ha         1 C1S       0.089500
     22 HN3          1.6320     0.7390     3.1720 hn         1 C1S       0.233133
@<TRIPOS>BOND
     1     1     2 1   
     2     2     3 1   
     3     2    11 1   
     4     3     4 1   
     5     3     5 1   
     6     3    12 1   
     7     4    13 1   
     8     4    14 1   
     9     4    22 1   
    10     5     6 1   
    11     5    15 1   
    12     5    16 1   
    13     6     7 1   
    14     7     8 1   
    15     8     9 1   
    16     8    17 1   
    17     8    18 1   
    18     9    10 2   
    19     9    19 1   
    20    10    20 1   
    21    10    21 1   
@<TRIPOS>SUBSTRUCTURE
     1 C1S         1 TEMP              0 ****  ****    0 ROOT
