@<TRIPOS>MOLECULE
molecule
   38    41     1     0     0
SMALL
bcc


@<TRIPOS>ATOM
      1 OAD          0.0000     0.0000     0.0000 oh         1 C1V      -0.506100
      2 CAT          1.3520     0.0000     0.0000 cc         1 C1V       0.282900
      3 CAZ          2.0690     0.0000     1.2300 cc         1 C1V      -0.204800
      4 CAU          2.0570    -0.0050    -1.2060 cd         1 C1V      -0.156900
      5 CAE          1.3560    -0.0090    -2.4540 ch         1 C1V       0.232500
      6 NAA          0.8160    -0.0070    -3.4530 n1         1 C1V      -0.352800
      7 CAX          3.4720    -0.0040    -1.1780 c          1 C1V       0.718700
      8 OAB          4.0990    -0.0080    -2.2230 o          1 C1V      -0.623500
      9 NAO          4.1240     0.0000    -0.0060 ns         1 C1V      -0.386100
     10 CAY          3.4520    -0.0000     1.1980 cd         1 C1V       0.150500
     11 SAP          4.0890    -0.0010     2.8400 ss         1 C1V      -0.112800
     12 CAN          2.4830    -0.0020     3.5410 cd         1 C1V      -0.084100
     13 CAW          1.5470    -0.0010     2.5950 cc         1 C1V       0.008000
     14 CAS          0.0980    -0.0000     2.9000 ca         1 C1V      -0.053000
     15 CAL         -0.4260    -0.9270     3.8030 ca         1 C1V      -0.098000
     16 CAJ         -1.7740    -0.9260     4.0860 ca         1 C1V      -0.116000
     17 CAK         -0.7440     0.9310     2.2890 ca         1 C1V      -0.098000
     18 CAI         -2.0910     0.9300     2.5720 ca         1 C1V      -0.116000
     19 CAR         -2.6160     0.0010     3.4700 cp         1 C1V      -0.014000
     20 CAV         -4.0670     0.0000     3.7750 cp         1 C1V      -0.071000
     21 CAM         -4.7950    -1.1860     3.7130 ca         1 C1V      -0.085000
     22 CAG         -6.1450    -1.1800     3.9980 ca         1 C1V      -0.159000
     23 CAF         -6.7790     0.0000     4.3450 ca         1 C1V      -0.089000
     24 CAH         -6.0670     1.1820     4.4090 ca         1 C1V      -0.210000
     25 CAQ         -4.7090     1.1910     4.1310 ca         1 C1V       0.142100
     26 OAC         -4.0060     2.3510     4.2000 oh         1 C1V      -0.496100
     27 HAD         -0.3140    -0.8840    -0.0890 ho         1 C1V       0.447000
     28 HAO          5.1250     0.0010     0.0090 hn         1 C1V       0.346500
     29 HAN          2.2500    -0.0840     4.5960 h4         1 C1V       0.188000
     30 HAL          0.2380    -1.5820     4.3530 ha         1 C1V       0.138500
     31 HAK         -0.3260     1.7130     1.6670 ha         1 C1V       0.138500
     32 HAJ         -2.1800    -1.6450     4.7870 ha         1 C1V       0.139000
     33 HAI         -2.7450     1.6530     2.0980 ha         1 C1V       0.139000
     34 HAM         -4.2950    -2.1180     3.4790 ha         1 C1V       0.139000
     35 HAG         -6.7120    -2.1020     3.9510 ha         1 C1V       0.134000
     36 HAF         -7.8400    -0.0000     4.5680 ha         1 C1V       0.133000
     37 HAH         -6.5680     2.1030     4.6810 ha         1 C1V       0.134000
     38 HAC         -4.5750     3.0760     4.0030 ho         1 C1V       0.422000
@<TRIPOS>BOND
     1     1     2 1
     2     2     3 1
     3     2     4 2
     4     3    10 2
     5     3    13 1
     6     4     5 1
     7     4     7 1
     8     5     6 3
     9     7     8 2
    10     7     9 1
    11     9    10 1
    12    10    11 1
    13    11    12 1
    14    12    13 2
    15    13    14 1
    16    14    15 ar
    17    14    17 ar
    18    15    16 ar
    19    16    19 ar
    20    17    18 ar
    21    18    19 ar
    22    19    20 1
    23    20    21 ar
    24    20    25 ar
    25    21    22 ar
    26    22    23 ar
    27    23    24 ar
    28    24    25 ar
    29    25    26 1
    30     1    27 1
    31     9    28 1
    32    12    29 1
    33    15    30 1
    34    17    31 1
    35    16    32 1
    36    18    33 1
    37    21    34 1
    38    22    35 1
    39    23    36 1
    40    24    37 1
    41    26    38 1
@<TRIPOS>SUBSTRUCTURE
     1 C1V         1 TEMP              0 ****  ****    0 ROOT
