@<TRIPOS>MOLECULE
C1V
   38    41     1     0     0
SMALL
bcc


@<TRIPOS>ATOM
      1 OAD          0.0000     0.0000     0.0000 oh         1 C1V      -0.488100
      2 CAT          1.3520     0.0000     0.0000 cc         1 C1V       0.290900
      3 CAZ          2.0690     0.0000     1.2300 cc         1 C1V      -0.199800
      4 CAU          2.0570    -0.0050    -1.2060 cd         1 C1V      -0.126900
      5 CAE          1.3560    -0.0090    -2.4540 ch         1 C1V       0.229500
      6 NAA          0.8160    -0.0070    -3.4530 n1         1 C1V      -0.375800
      7 CAX          3.4720    -0.0040    -1.1780 c          1 C1V       0.602700
      8 OAB          4.0990    -0.0080    -2.2230 o          1 C1V      -0.671500
      9 NAO          4.1240     0.0000    -0.0060 ns         1 C1V       0.121900
     10 CAY          3.4520    -0.0000     1.1980 cd         1 C1V       0.020500
     11 SAP          4.0890    -0.0010     2.8400 ss         1 C1V      -0.236800
     12 CAN          2.4830    -0.0020     3.5410 cd         1 C1V      -0.007100
     13 CAW          1.5470    -0.0010     2.5950 cc         1 C1V       0.025000
     14 CAS          0.0980    -0.0000     2.9000 ca         1 C1V      -0.058000
     15 CAL         -0.4260    -0.9270     3.8030 ca         1 C1V      -0.075500
     16 CAJ         -1.7740    -0.9260     4.0860 ca         1 C1V      -0.092000
     17 CAK         -0.7440     0.9310     2.2890 ca         1 C1V      -0.075500
     18 CAI         -2.0910     0.9300     2.5720 ca         1 C1V      -0.092000
     19 CAR         -2.6160     0.0010     3.4700 cp         1 C1V      -0.005000
     20 CAV         -4.0670     0.0000     3.7750 cp         1 C1V      -0.078000
     21 CAM         -4.7950    -1.1860     3.7130 ca         1 C1V      -0.056000
     22 CAG         -6.1450    -1.1800     3.9980 ca         1 C1V      -0.137000
     23 CAF         -6.7790     0.0000     4.3450 ca         1 C1V      -0.057000
     24 CAH         -6.0670     1.1820     4.4090 ca         1 C1V      -0.194000
     25 CAQ         -4.7090     1.1910     4.1310 ca         1 C1V       0.160100
     26 OAC         -4.0060     2.3510     4.2000 oh         1 C1V      -0.476100
     27 HAD         -0.3140    -0.8840    -0.0890 ho         1 C1V       0.426000
     28 HAO          5.1250     0.0010     0.0090 hn         1 C1V       0.178500
     29 HAN          2.2500    -0.0840     4.5960 h4         1 C1V       0.165000
     30 HAL          0.2380    -1.5820     4.3530 ha         1 C1V       0.112000
     31 HAK         -0.3260     1.7130     1.6670 ha         1 C1V       0.112000
     32 HAJ         -2.1800    -1.6450     4.7870 ha         1 C1V       0.113000
     33 HAI         -2.7450     1.6530     2.0980 ha         1 C1V       0.113000
     34 HAM         -4.2950    -2.1180     3.4790 ha         1 C1V       0.109000
     35 HAG         -6.7120    -2.1020     3.9510 ha         1 C1V       0.107000
     36 HAF         -7.8400    -0.0000     4.5680 ha         1 C1V       0.102000
     37 HAH         -6.5680     2.1030     4.6810 ha         1 C1V       0.111000
     38 HAC         -4.5750     3.0760     4.0030 ho         1 C1V       0.403000
@<TRIPOS>BOND
     1     1     2 1   
     2     1    27 1   
     3     2     3 1   
     4     2     4 2   
     5     3    10 2   
     6     3    13 1   
     7     4     5 1   
     8     4     7 1   
     9     5     6 3   
    10     7     8 2   
    11     7     9 1   
    12     9    10 1   
    13     9    28 1   
    14    10    11 1   
    15    11    12 1   
    16    12    13 2   
    17    12    29 1   
    18    13    14 1   
    19    14    15 ar  
    20    14    17 ar  
    21    15    16 ar  
    22    15    30 1   
    23    16    19 ar  
    24    16    32 1   
    25    17    18 ar  
    26    17    31 1   
    27    18    19 ar  
    28    18    33 1   
    29    19    20 1   
    30    20    21 ar  
    31    20    25 ar  
    32    21    22 ar  
    33    21    34 1   
    34    22    23 ar  
    35    22    35 1   
    36    23    24 ar  
    37    23    36 1   
    38    24    25 ar  
    39    24    37 1   
    40    25    26 1   
    41    26    38 1   
@<TRIPOS>SUBSTRUCTURE
     1 C1V         1 TEMP              0 ****  ****    0 ROOT
