@<TRIPOS>MOLECULE
molecule
   36    38     1     0     0
SMALL
bcc


@<TRIPOS>ATOM
      1 C1           0.0000     0.0000     0.0000 ca         1 C1W      -0.151000
      2 C2           1.3850     0.0000     0.0000 ca         1 C1W       0.103900
      3 C3           2.0790     0.0000     1.1980 ca         1 C1W      -0.151000
      4 C7          -0.8000    -0.5510     5.9600 ca         1 C1W      -0.356200
      5 C8          -0.2420    -1.2180     7.0340 ca         1 C1W       0.539200
      6 C9           1.4400    -1.9960     5.6620 ca         1 C1W       0.974900
      7 C10          3.1970    -3.3240     6.6290 ca         1 C1W       0.111600
      8 C11          3.1530    -2.6740     7.8590 ca         1 C1W      -0.148000
      9 C12          3.7400    -3.2450     8.9640 ca         1 C1W      -0.075000
     10 C13          4.3830    -4.4820     8.8520 ca         1 C1W      -0.100600
     11 C14          4.4270    -5.1340     7.6140 ca         1 C1W       0.062400
     12 C15          3.8360    -4.5550     6.5110 ca         1 C1W      -0.181000
     13 C16          5.0130    -5.0980    10.0330 c          1 C1W       0.877200
     14 F            2.0600    -0.0000    -1.1710 f          1 C1W      -0.148900
     15 C4           1.3920     0.0000     2.3950 ca         1 C1W      -0.123500
     16 C5           0.0040     0.0010     2.3980 ca         1 C1W       0.150600
     17 C           -0.6910     0.0060     1.1950 ca         1 C1W      -0.123500
     18 N           -0.6960     0.0060     3.6100 nu         1 C1W      -0.767300
     19 C6          -0.1710    -0.6470     4.7150 ca         1 C1W       0.764200
     20 N2           0.9370    -1.3720     4.6070 nb         1 C1W      -0.860000
     21 N1           0.8650    -1.9230     6.8530 nb         1 C1W      -0.783000
     22 Cl           5.2240    -6.6690     7.4670 cl         1 C1W      -0.087400
     23 O1           4.9700    -4.4690    11.2240 o          1 C1W      -0.825300
     24 O            5.5720    -6.1720     9.9340 o          1 C1W      -0.825300
     25 H1          -0.5410     0.0020    -0.9380 ha         1 C1W       0.143500
     26 H2           3.1630    -0.0000     1.1960 ha         1 C1W       0.143500
     27 H5          -0.7040    -1.1640     8.0120 h4         1 C1W       0.041100
     28 H7           2.6800    -1.7030     7.9400 ha         1 C1W       0.134000
     29 H8           3.7490    -2.7140     9.9080 ha         1 C1W       0.165000
     30 H9           3.8700    -5.0570     5.5520 ha         1 C1W       0.121000
     31 H3           1.9360    -0.0020     3.3320 ha         1 C1W       0.152500
     32 H           -1.7750     0.0070     1.1940 ha         1 C1W       0.152500
     33 H4          -1.5560     0.5110     3.6890 hn         1 C1W       0.466800
     34 H6           3.0060    -2.8610     4.6090 hn         1 C1W       0.458800
     35 Cl1         -2.2540     0.3790     6.1510 cl         1 C1W      -0.124400
     36 N3           2.5970    -2.7450     5.5150 nu         1 C1W      -0.730300
@<TRIPOS>BOND
     1    35     4 1
     2     5     4 ar
     3     5    21 ar
     4     4    19 ar
     5    21     6 ar
     6     6    36 1
     7     6    20 ar
     8    19    20 ar
     9    19    18 1
    10    36     7 1
    11    18    16 1
    12     7     8 ar
    13     7    12 ar
    14    16    17 ar
    15    16    15 ar
    16     8     9 ar
    17    17     1 ar
    18    12    11 ar
    19    15     3 ar
    20     9    10 ar
    21     1     2 ar
    22    11    10 ar
    23    11    22 1
    24    10    13 1
    25     3     2 ar
    26     2    14 1
    27    13    24 1
    28    13    23 1
    29     1    25 1
    30     3    26 1
    31     5    27 1
    32     8    28 1
    33     9    29 1
    34    12    30 1
    35    15    31 1
    36    17    32 1
    37    18    33 1
    38    36    34 1
@<TRIPOS>SUBSTRUCTURE
     1 C1W         1 TEMP              0 ****  ****    0 ROOT
