@<TRIPOS>MOLECULE
C1W
   36    38     1     0     0
SMALL
bcc


@<TRIPOS>ATOM
      1 C1           0.0000     0.0000     0.0000 ca         1 C1W      -0.113500
      2 C2           1.3850     0.0000     0.0000 ca         1 C1W       0.073900
      3 C3           2.0790     0.0000     1.1980 ca         1 C1W      -0.113500
      4 C7          -0.8000    -0.5510     5.9600 ca         1 C1W      -0.434200
      5 C8          -0.2420    -1.2180     7.0340 ca         1 C1W       0.535200
      6 C9           1.4400    -1.9960     5.6620 ca         1 C1W       0.734900
      7 C10          3.1970    -3.3240     6.6290 ca         1 C1W      -0.059400
      8 C11          3.1530    -2.6740     7.8590 ca         1 C1W      -0.130000
      9 C12          3.7400    -3.2450     8.9640 ca         1 C1W      -0.044000
     10 C13          4.3830    -4.4820     8.8520 ca         1 C1W      -0.096600
     11 C14          4.4270    -5.1340     7.6140 ca         1 C1W      -0.003600
     12 C15          3.8360    -4.5550     6.5110 ca         1 C1W      -0.158000
     13 C16          5.0130    -5.0980    10.0330 c          1 C1W       0.968200
     14 F            2.0600    -0.0000    -1.1710 f          1 C1W      -0.134900
     15 C4           1.3920     0.0000     2.3950 ca         1 C1W      -0.103000
     16 C5           0.0040     0.0010     2.3980 ca         1 C1W       0.003600
     17 C           -0.6910     0.0060     1.1950 ca         1 C1W      -0.103000
     18 N           -0.6960     0.0060     3.6100 nu         1 C1W      -0.311300
     19 C6          -0.1710    -0.6470     4.7150 ca         1 C1W       0.572200
     20 N2           0.9370    -1.3720     4.6070 nb         1 C1W      -0.764000
     21 N1           0.8650    -1.9230     6.8530 nb         1 C1W      -0.693000
     22 Cl           5.2240    -6.6690     7.4670 cl         1 C1W       0.000600
     23 O1           4.9700    -4.4690    11.2240 o          1 C1W      -0.876300
     24 O            5.5720    -6.1720     9.9340 o          1 C1W      -0.876300
     25 H1          -0.5410     0.0020    -0.9380 ha         1 C1W       0.115000
     26 H2           3.1630    -0.0000     1.1960 ha         1 C1W       0.115000
     27 H5          -0.7040    -1.1640     8.0120 h4         1 C1W      -0.011900
     28 H7           2.6800    -1.7030     7.9400 ha         1 C1W       0.116000
     29 H8           3.7490    -2.7140     9.9080 ha         1 C1W       0.134000
     30 H9           3.8700    -5.0570     5.5520 ha         1 C1W       0.099000
     31 H3           1.9360    -0.0020     3.3320 ha         1 C1W       0.126500
     32 H           -1.7750     0.0070     1.1940 ha         1 C1W       0.126500
     33 H4          -1.5560     0.5110     3.6890 hn         1 C1W       0.294800
     34 H6           3.0060    -2.8610     4.6090 hn         1 C1W       0.281800
     35 Cl1         -2.2540     0.3790     6.1510 cl         1 C1W      -0.030400
     36 N3           2.5970    -2.7450     5.5150 nu         1 C1W      -0.240300
@<TRIPOS>BOND
     1     1     2 ar  
     2     1    17 ar  
     3     1    25 1   
     4     2     3 ar  
     5     2    14 1   
     6     3    15 ar  
     7     3    26 1   
     8     4     5 ar  
     9     4    19 ar  
    10     4    35 1   
    11     5    21 ar  
    12     5    27 1   
    13     6    20 ar  
    14     6    21 ar  
    15     6    36 1   
    16     7     8 ar  
    17     7    12 ar  
    18     7    36 1   
    19     8     9 ar  
    20     8    28 1   
    21     9    10 ar  
    22     9    29 1   
    23    10    11 ar  
    24    10    13 1   
    25    11    12 ar  
    26    11    22 1   
    27    12    30 1   
    28    13    23 1   
    29    13    24 1   
    30    15    16 ar  
    31    15    31 1   
    32    16    17 ar  
    33    16    18 1   
    34    17    32 1   
    35    18    19 1   
    36    18    33 1   
    37    19    20 ar  
    38    34    36 1   
@<TRIPOS>SUBSTRUCTURE
     1 C1W         1 TEMP              0 ****  ****    0 ROOT
