@<TRIPOS>MOLECULE
C1Y
   41    43     1     0     0
SMALL
bcc


@<TRIPOS>ATOM
      1 C4           0.0000     0.0000     0.0000 ca         1 C1Y       0.418100
      2 C5           1.4060     0.0000     0.0000 ca         1 C1Y      -0.475800
      3 C6           2.0660     0.0000     1.2350 ca         1 C1Y       0.533200
      4 C20         -5.3320     2.9360    -3.4630 c3         1 C1Y      -0.022400
      5 C21         -6.5650     2.5640    -2.6360 c3         1 C1Y      -0.032400
      6 C8           0.7280     0.0020    -2.1360 cc         1 C1Y      -0.265100
      7 C22         -7.8140     2.6510    -3.5160 c3         1 C1Y       0.006900
      8 C3'         -2.8170     3.2170    -3.3890 c3         1 C1Y       0.183100
      9 C2'         -1.7350     2.2280    -2.9160 c3         1 C1Y       0.114800
     10 N1'         -2.3510     1.3730    -1.8780 n3         1 C1Y      -0.521600
     11 C1'         -3.8090     1.3810    -2.1620 c3         1 C1Y       0.148800
     12 C4'         -4.0830     2.8490    -2.5830 c3         1 C1Y      -0.064700
     13 C9          -0.4010     0.0050    -1.4030 cd         1 C1Y      -0.258000
     14 N3          -0.6510    -0.0000     1.1670 nb         1 C1Y      -0.560000
     15 N7           1.8150     0.0000    -1.3120 na         1 C1Y       0.393600
     16 N6           3.4500     0.0000     1.2980 nv         1 C1Y      -0.657500
     17 N1           1.3360    -0.0000     2.3460 nb         1 C1Y      -0.627000
     18 C2           0.0150     0.0010     2.3010 ca         1 C1Y       0.592900
     19 H3          -5.2360     2.2490    -4.2960 hc         1 C1Y       0.015200
     20 H4          -5.4400     3.9460    -3.8380 hc         1 C1Y       0.015200
     21 H5          -6.4570     1.5540    -2.2610 hc         1 C1Y       0.016700
     22 H6          -6.6610     3.2500    -1.8030 hc         1 C1Y       0.016700
     23 H7           0.7680    -0.0000    -3.2190 h4         1 C1Y       0.143000
     24 H8          -7.9240     3.6620    -3.8880 hc         1 C1Y       0.000033
     25 H9          -7.7160     1.9670    -4.3500 hc         1 C1Y       0.000033
     26 H10         -8.6860     2.3850    -2.9310 hc         1 C1Y       0.000033
     27 H12         -2.9990     3.0900    -4.4490 h1         1 C1Y       0.001700
     28 H13         -1.4050     1.6170    -3.7470 h1         1 C1Y       0.019700
     29 H14         -0.8980     2.7720    -2.4950 h1         1 C1Y       0.019700
     30 H16         -4.0430     0.7020    -2.9730 h1         1 C1Y       0.017200
     31 H17         -4.3720     1.1300    -1.2710 h1         1 C1Y       0.017200
     32 H18         -4.1770     3.4840    -1.7110 hc         1 C1Y       0.061700
     33 H19          2.7680    -0.0020    -1.6180 hn         1 C1Y       0.115700
     34 H20          3.9490    -0.8660     1.3390 hn         1 C1Y       0.276300
     35 H21          3.9480     0.8670     1.3390 hn         1 C1Y       0.276300
     36 H22         -0.5390     0.0000     3.2320 h5         1 C1Y      -0.001900
     37 C10         -1.8120     0.0080    -1.9310 c3         1 C1Y       0.250000
     38 O3'         -2.4200     4.5600    -3.1040 oh         1 C1Y      -0.572800
     39 H1          -1.8140    -0.3420    -2.9560 h1         1 C1Y       0.011700
     40 H2          -2.4260    -0.6470    -1.3240 h1         1 C1Y       0.011700
     41 H11         -2.1150     4.9720    -3.8960 ho         1 C1Y       0.383000
@<TRIPOS>BOND
     1     1     2 ar  
     2     1    13 1   
     3     1    14 ar  
     4     2     3 ar  
     5     2    15 1   
     6     3    16 1   
     7     3    17 ar  
     8     4     5 1   
     9     4    12 1   
    10     4    19 1   
    11     4    20 1   
    12     5     7 1   
    13     5    21 1   
    14     5    22 1   
    15     6    13 2   
    16     6    15 1   
    17     6    23 1   
    18     7    24 1   
    19     7    25 1   
    20     7    26 1   
    21     8     9 1   
    22     8    12 1   
    23     8    27 1   
    24     8    38 1   
    25     9    10 1   
    26     9    28 1   
    27     9    29 1   
    28    10    11 1   
    29    10    37 1   
    30    11    12 1   
    31    11    30 1   
    32    11    31 1   
    33    12    32 1   
    34    13    37 1   
    35    14    18 ar  
    36    15    33 1   
    37    16    34 1   
    38    16    35 1   
    39    17    18 ar  
    40    18    36 1   
    41    37    39 1   
    42    37    40 1   
    43    38    41 1   
@<TRIPOS>SUBSTRUCTURE
     1 C1Y         1 TEMP              0 ****  ****    0 ROOT
