@<TRIPOS>MOLECULE
molecule
   92    93     1     0     0
SMALL
bcc


@<TRIPOS>ATOM
      1 C1           0.0000     0.0000     0.0000 c3         1 C20      -0.166100
      2 C2           1.5070     0.0000     0.0000 c          1 C20       0.658100
      3 O3           2.1120     0.0000     1.0510 o          1 C20      -0.622100
      4 N4           2.1820     0.0000    -1.1660 ns         1 C20      -0.565900
      5 C5           3.6460    -0.0010    -1.1660 c3         1 C20       0.047700
      6 C6           4.1560    -1.4420    -1.1650 c3         1 C20      -0.086700
      7 C7           3.7600    -2.1240     0.1460 c3         1 C20      -0.088600
      8 C8           3.5380    -2.2010    -2.3400 c3         1 C20      -0.088600
      9 C9           4.1510     0.7100    -2.3950 c          1 C20       0.653100
     10 O10          3.4090     0.8900    -3.3370 o          1 C20      -0.613100
     11 N11          5.4250     1.1440    -2.4480 ns         1 C20      -0.571900
     12 C12          5.8860     1.9250    -3.5980 c3         1 C20       0.096700
     13 C13          5.6580     3.4140    -3.3300 c3         1 C20      -0.052100
     14 C14          4.1890     3.6660    -3.1070 ca         1 C20      -0.075300
     15 C15          3.6600     3.5900    -1.8320 ca         1 C20      -0.118000
     16 C16          2.3130     3.8210    -1.6280 ca         1 C20      -0.121000
     17 C17          1.4950     4.1280    -2.6980 ca         1 C20      -0.129000
     18 C18          2.0240     4.2050    -3.9730 ca         1 C20      -0.121000
     19 C19          3.3720     3.9780    -4.1760 ca         1 C20      -0.118000
     20 C20          7.3760     1.6690    -3.8250 c3         1 C20       0.139100
     21 O21          8.1070     2.0590    -2.6610 oh         1 C20      -0.588800
     22 C22          7.6030     0.1810    -4.0940 c3         1 C20       0.107800
     23 N23          9.0340    -0.0640    -4.3110 n3         1 C20      -0.361600
     24 C24          9.1660    -1.4720    -4.7110 c3         1 C20       0.111800
     25 C25          8.9240    -2.3720    -3.4980 c3         1 C20      -0.064700
     26 C26          8.9120    -3.8360    -3.9430 c3         1 C20      -0.075400
     27 C27          8.6710    -4.7360    -2.7300 c3         1 C20      -0.078900
     28 C28          9.7860    -4.5230    -1.7060 c3         1 C20      -0.081400
     29 C29          9.7980    -3.0590    -1.2610 c3         1 C20      -0.078900
     30 C30         10.0400    -2.1590    -2.4740 c3         1 C20      -0.075400
     31 N31          9.4030     0.6870    -5.3910 ns         1 C20      -0.485300
     32 C32         10.4330     1.5490    -5.2930 c          1 C20       0.663100
     33 O33         10.9880     1.7110    -4.2260 o          1 C20      -0.577100
     34 C34         10.8940     2.3140    -6.5050 c3         1 C20       0.047700
     35 N35         11.5160     3.5710    -6.0830 ns         1 C20      -0.575900
     36 C36         11.9140     1.4760    -7.2800 c3         1 C20      -0.083700
     37 C37         13.0900     1.1320    -6.3660 c3         1 C20      -0.093100
     38 C38         11.2490     0.1870    -7.7640 c3         1 C20      -0.093100
     39 C39         11.4600     4.6540    -6.8840 c          1 C20       0.658100
     40 O40         10.8960     4.5870    -7.9540 o          1 C20      -0.616100
     41 C41         12.1000     5.9470    -6.4490 c3         1 C20      -0.169100
     42 H11         -0.3610    -0.4850     0.8990 hc         1 C20       0.061033
     43 H12A        -0.3610    -0.5360    -0.8690 hc         1 C20       0.061033
     44 H13         -0.3610     1.0210    -0.0300 hc         1 C20       0.061033
     45 HN4          1.6820     0.0060    -2.0330 hn         1 C20       0.336500
     46 H5           4.0070     0.5100    -0.2810 h1         1 C20       0.092700
     47 H6           5.2350    -1.4440    -1.2610 hc         1 C20       0.049700
     48 H71          4.0050    -1.4760     0.9790 hc         1 C20       0.041033
     49 H72          2.6940    -2.3210     0.1420 hc         1 C20       0.041033
     50 H73          4.2990    -3.0580     0.2450 hc         1 C20       0.041033
     51 H81          2.4670    -2.2800    -2.1960 hc         1 C20       0.041033
     52 H82          3.7400    -1.6680    -3.2610 hc         1 C20       0.041033
     53 H83          3.9690    -3.1940    -2.3960 hc         1 C20       0.041033
     54 HN1          6.0440     0.9700    -1.6810 hn         1 C20       0.331500
     55 H12          5.3310     1.6300    -4.4810 h1         1 C20       0.087700
     56 H131         6.2130     3.7100    -2.4480 hc         1 C20       0.054700
     57 H132         5.9980     3.9900    -4.1810 hc         1 C20       0.054700
     58 H15          4.3020     3.3490    -0.9930 ha         1 C20       0.126500
     59 H16          1.8980     3.7620    -0.6290 ha         1 C20       0.128000
     60 H17          0.4390     4.3080    -2.5380 ha         1 C20       0.125000
     61 H18          1.3830     4.4470    -4.8120 ha         1 C20       0.128000
     62 H19          3.7870     4.0370    -5.1750 ha         1 C20       0.126500
     63 H20          7.7160     2.2460    -4.6760 h1         1 C20       0.044700
     64 HO1          8.4980     2.9050    -2.8040 ho         1 C20       0.411000
     65 H221         7.0480    -0.1150    -4.9750 h1         1 C20       0.059700
     66 H222         7.2630    -0.3960    -3.2420 h1         1 C20       0.059700
     67 H241         8.4370    -1.6990    -5.4800 h1         1 C20       0.044700
     68 H242        10.1640    -1.6460    -5.0970 h1         1 C20       0.044700
     69 H25          7.9700    -2.1270    -3.0460 hc         1 C20       0.051700
     70 H261         8.1190    -3.9860    -4.6660 hc         1 C20       0.048700
     71 H262         9.8670    -4.0830    -4.3900 hc         1 C20       0.048700
     72 H271         8.6660    -5.7720    -3.0460 hc         1 C20       0.041200
     73 H272         7.7170    -4.4860    -2.2800 hc         1 C20       0.041200
     74 H281        10.7400    -4.7690    -2.1570 hc         1 C20       0.040700
     75 H282         9.6120    -5.1580    -0.8470 hc         1 C20       0.040700
     76 H291         8.8420    -2.8110    -0.8150 hc         1 C20       0.041200
     77 H292        10.5900    -2.9090    -0.5380 hc         1 C20       0.041200
     78 H301        10.0460    -1.1230    -2.1590 hc         1 C20       0.048700
     79 H302        10.9930    -2.4110    -2.9240 hc         1 C20       0.048700
     80 HN3          8.8920     0.6140    -6.2480 hn         1 C20       0.301500
     81 H34         10.0440     2.5280    -7.1410 h1         1 C20       0.084700
     82 HN5         11.9610     3.6340    -5.1890 hn         1 C20       0.336500
     83 H36         12.2720     2.0410    -8.1320 hc         1 C20       0.075700
     84 H371        13.5020     2.0420    -5.9480 hc         1 C20       0.039533
     85 H372        12.7480     0.4890    -5.5640 hc         1 C20       0.039533
     86 H373        13.8540     0.6190    -6.9380 hc         1 C20       0.039533
     87 H381        10.2220     0.3920    -8.0400 hc         1 C20       0.039533
     88 H382        11.7850    -0.1940    -8.6250 hc         1 C20       0.039533
     89 H383        11.2700    -0.5500    -6.9710 hc         1 C20       0.039533
     90 H411        13.1770     5.8270    -6.4250 hc         1 C20       0.063033
     91 H412        11.7440     6.2110    -5.4610 hc         1 C20       0.063033
     92 H413        11.8400     6.7320    -7.1490 hc         1 C20       0.063033
@<TRIPOS>BOND
     1     1     2 1
     2     1    42 1
     3     1    43 1
     4     1    44 1
     5     2     3 2
     6     2     4 1
     7     4     5 1
     8     4    45 1
     9     5     6 1
    10     5     9 1
    11     5    46 1
    12     6     7 1
    13     6     8 1
    14     6    47 1
    15     7    48 1
    16     7    49 1
    17     7    50 1
    18     8    51 1
    19     8    52 1
    20     8    53 1
    21     9    10 2
    22     9    11 1
    23    11    12 1
    24    11    54 1
    25    12    13 1
    26    12    20 1
    27    12    55 1
    28    13    14 1
    29    13    56 1
    30    13    57 1
    31    14    15 ar
    32    14    19 ar
    33    15    16 ar
    34    15    58 1
    35    16    17 ar
    36    16    59 1
    37    17    18 ar
    38    17    60 1
    39    18    19 ar
    40    18    61 1
    41    19    62 1
    42    20    21 1
    43    20    22 1
    44    20    63 1
    45    21    64 1
    46    22    23 1
    47    22    65 1
    48    22    66 1
    49    23    24 1
    50    23    31 1
    51    24    25 1
    52    24    67 1
    53    24    68 1
    54    25    26 1
    55    25    30 1
    56    25    69 1
    57    26    27 1
    58    26    70 1
    59    26    71 1
    60    27    28 1
    61    27    72 1
    62    27    73 1
    63    28    29 1
    64    28    74 1
    65    28    75 1
    66    29    30 1
    67    29    76 1
    68    29    77 1
    69    30    78 1
    70    30    79 1
    71    31    32 1
    72    31    80 1
    73    32    33 2
    74    32    34 1
    75    34    35 1
    76    34    36 1
    77    34    81 1
    78    35    39 1
    79    35    82 1
    80    36    37 1
    81    36    38 1
    82    36    83 1
    83    37    84 1
    84    37    85 1
    85    37    86 1
    86    38    87 1
    87    38    88 1
    88    38    89 1
    89    39    40 2
    90    39    41 1
    91    41    90 1
    92    41    91 1
    93    41    92 1
@<TRIPOS>SUBSTRUCTURE
     1 C20         1 TEMP              0 ****  ****    0 ROOT
