@<TRIPOS>MOLECULE
C21
   11    11     1     0     0
SMALL
bcc


@<TRIPOS>ATOM
      1 O8          0.0260   -0.0070   -0.0300 o         1 C21     -0.825300
      2 C6          1.2880   -0.0010   -0.0090 c         1 C21      0.932200
      3 O7          1.9830    0.0040    1.0460 o         1 C21     -0.825300
      4 C4          2.0090   -0.0010   -1.3370 cc        1 C21     -0.102700
      5 S5          3.6860    0.0040   -1.5050 ss        1 C21     -0.007800
      6 C3          1.3950   -0.0060   -2.5720 cd        1 C21     -0.180000
      7 C2          2.3410   -0.0050   -3.6440 cd        1 C21     -0.174000
      8 C1          3.6380    0.0010   -3.1750 cc        1 C21     -0.232100
      9 H3          0.3120   -0.0100   -2.7050 ha        1 C21      0.157000
     10 H2          2.0520   -0.0080   -4.6950 ha        1 C21      0.119000
     11 H1          4.5310    0.0030   -3.7920 h4        1 C21      0.137000
@<TRIPOS>BOND
     1    1    2 1   
     2    2    3 1   
     3    2    4 1   
     4    4    5 1   
     5    4    6 2   
     6    5    8 1   
     7    6    7 1   
     8    6    9 1   
     9    7    8 2   
    10    7   10 1   
    11    8   11 1   
@<TRIPOS>SUBSTRUCTURE
     1 C21         1 TEMP              0 ****  ****    0 ROOT
