@<TRIPOS>MOLECULE
molecule
   11    11     1     0     0
SMALL
bcc


@<TRIPOS>ATOM
      1 O8           0.0000     0.0000     0.0000 o          1 C21      -0.822300
      2 C6           1.2160     0.0000     0.0000 c          1 C21       0.909200
      3 O7           1.8910     0.0000     1.1680 o          1 C21      -0.822300
      4 C4           1.9480    -0.0010    -1.2680 cc         1 C21       0.045300
      5 S5           3.7100    -0.0020    -1.5490 ss         1 C21      -0.181800
      6 C3           1.4530    -0.0070    -2.5640 cd         1 C21      -0.214000
      7 C2           2.3720    -0.0020    -3.5830 cd         1 C21      -0.175000
      8 C1           3.6970    -0.0030    -3.2830 cc         1 C21      -0.152100
      9 H3           0.3880    -0.0070    -2.7620 ha         1 C21       0.148000
     10 H2           2.0440    -0.0040    -4.6160 ha         1 C21       0.108000
     11 H1           4.5410    -0.0010    -3.9620 h4         1 C21       0.156000
@<TRIPOS>BOND
     1     1     2 1
     2     2     3 1
     3     2     4 1
     4     4     5 1
     5     4     6 2
     6     5     8 1
     7     6     7 1
     8     6     9 1
     9     7     8 2
    10     7    10 1
    11     8    11 1
@<TRIPOS>SUBSTRUCTURE
     1 C21         1 TEMP              0 ****  ****    0 ROOT
