@<TRIPOS>MOLECULE
C23
   52    55     1     0     0
SMALL
bcc


@<TRIPOS>ATOM
      1 O2         -0.4310   -0.1860    0.1070 o         1 C23     -0.534100
      2 C14         0.8040   -0.1430    0.0490 c         1 C23      0.608300
      3 C15         1.6900   -0.1030    1.2590 c3        1 C23     -0.167400
      4 C16         0.9000   -0.1130    2.5520 c3        1 C23     -0.033100
      5 C17         1.7960   -0.0300    3.7380 ca        1 C23     -0.079300
      6 C22         2.4290    1.1780    4.0590 ca        1 C23     -0.126500
      7 C21         3.2590    1.2620    5.1740 ca        1 C23     -0.128500
      8 C20         3.4640    0.1420    5.9810 ca        1 C23     -0.132000
      9 C19         2.8360   -1.0620    5.6670 ca        1 C23     -0.128500
     10 C18         2.0050   -1.1490    4.5510 ca        1 C23     -0.126500
     11 C2          1.5000   -0.1250   -1.2370 cc        1 C23     -0.111100
     12 O           2.9180   -0.0750   -1.1750 os        1 C23     -0.194200
     13 C3          3.3510   -0.0480   -2.4950 ca        1 C23      0.117100
     14 C13         2.2360   -0.0810   -3.3870 ca        1 C23     -0.165800
     15 C1          1.0520   -0.1340   -2.5460 cd        1 C23      0.019600
     16 C          -0.3310   -0.1940   -3.0200 c3        1 C23     -0.054900
     17 C7          2.4870   -0.0510   -4.7710 ca        1 C23      0.202100
     18 C6          3.8160    0.0060   -5.2110 ca        1 C23     -0.244000
     19 C5          4.8790    0.0290   -4.2980 ca        1 C23     -0.060000
     20 C4          4.6760    0.0040   -2.9220 ca        1 C23     -0.171000
     21 O1          1.3750   -0.0730   -5.5770 os        1 C23     -0.321900
     22 C8          1.5820   -0.1500   -7.0000 c3        1 C23      0.141100
     23 C12         0.2800   -0.7200   -7.5580 c3        1 C23     -0.094400
     24 C11         0.3180   -0.7090   -9.0850 c3        1 C23      0.165800
     25 N           0.6280    0.5940   -9.6400 n3        1 C23     -0.822200
     26 C10         1.8310    1.1940   -9.0970 c3        1 C23      0.165800
     27 C9          1.8420    1.2390   -7.5710 c3        1 C23     -0.094400
     28 H151        2.3840   -0.9850    1.2150 hc        1 C23      0.080700
     29 H152        2.3290    0.8200    1.1990 hc        1 C23      0.080700
     30 H161        0.1870    0.7560    2.5550 hc        1 C23      0.061700
     31 H162        0.2760   -1.0450    2.5960 hc        1 C23      0.061700
     32 H22         2.2660    2.0620    3.4250 ha        1 C23      0.131500
     33 H18         1.5090   -2.1010    4.3090 ha        1 C23      0.131500
     34 H21         3.7520    2.2140    5.4200 ha        1 C23      0.130000
     35 H20         4.1190    0.2090    6.8610 ha        1 C23      0.130000
     36 H19         2.9940   -1.9470    6.3020 ha        1 C23      0.130000
     37 H4          5.5070    0.0240   -2.2060 ha        1 C23      0.155000
     38 HC1        -0.6030   -1.2540   -3.2610 hc        1 C23      0.065367
     39 HC2        -0.4480    0.4140   -3.9530 hc        1 C23      0.065367
     40 HC3        -1.0370    0.1800   -2.2350 hc        1 C23      0.065367
     41 H6          4.0470    0.0400   -6.2850 ha        1 C23      0.141000
     42 H5          5.9080    0.0720   -4.6880 ha        1 C23      0.137000
     43 H8          2.4330   -0.8470   -7.2300 h1        1 C23      0.051700
     44 H121       -0.5820   -0.1100   -7.1830 hc        1 C23      0.064200
     45 H122        0.1400   -1.7710   -7.2000 hc        1 C23      0.064200
     46 H91C        1.0530    1.9420   -7.1970 hc        1 C23      0.064200
     47 H92C        2.8340    1.6230   -7.2230 hc        1 C23      0.064200
     48 H111       -0.6980   -1.0040   -9.4720 h1        1 C23      0.030950
     49 H112        1.0540   -1.4990   -9.4220 h1        1 C23      0.030950
     50 H           0.6920    0.5360  -10.6390 hn        1 C23      0.367800
     51 H101        2.7640    0.6550   -9.4390 h1        1 C23      0.030950
     52 H102        1.8850    2.2480   -9.4910 h1        1 C23      0.030950
@<TRIPOS>BOND
     1    1    2 2   
     2    2    3 1   
     3    2   11 1   
     4    3    4 1   
     5    3   28 1   
     6    3   29 1   
     7    4    5 1   
     8    4   30 1   
     9    4   31 1   
    10    5    6 ar  
    11    5   10 ar  
    12    6    7 ar  
    13    6   32 1   
    14    7    8 ar  
    15    7   34 1   
    16    8    9 ar  
    17    8   35 1   
    18    9   10 ar  
    19    9   36 1   
    20   10   33 1   
    21   11   12 1   
    22   11   15 2   
    23   12   13 1   
    24   13   14 ar  
    25   13   20 ar  
    26   14   15 1   
    27   14   17 ar  
    28   15   16 1   
    29   16   38 1   
    30   16   39 1   
    31   16   40 1   
    32   17   18 ar  
    33   17   21 1   
    34   18   19 ar  
    35   18   41 1   
    36   19   20 ar  
    37   19   42 1   
    38   20   37 1   
    39   21   22 1   
    40   22   23 1   
    41   22   27 1   
    42   22   43 1   
    43   23   24 1   
    44   23   44 1   
    45   23   45 1   
    46   24   25 1   
    47   24   48 1   
    48   24   49 1   
    49   25   26 1   
    50   25   50 1   
    51   26   27 1   
    52   26   51 1   
    53   26   52 1   
    54   27   46 1   
    55   27   47 1   
@<TRIPOS>SUBSTRUCTURE
     1 C23         1 TEMP              0 ****  ****    0 ROOT
