@<TRIPOS>MOLECULE
C24
   67    70     1     0     0
SMALL
bcc


@<TRIPOS>ATOM
      1 C2           0.0000     0.0000     0.0000 ca         1 C24       0.111600
      2 N10         -0.6950     0.0000    -1.2060 nu         1 C24      -0.357600
      3 C11         -2.1580    -0.0010    -1.2090 c3         1 C24       0.168500
      4 C12         -2.6590    -0.0000    -2.6290 cc         1 C24       0.151800
      5 N16         -2.9070     1.0670    -3.3310 nd         1 C24      -0.466100
      6 C15         -3.3430     0.7070    -4.5670 ca         1 C24       0.031400
      7 C18         -3.7350     1.4280    -5.6930 ca         1 C24       0.047000
      8 C19         -4.1430     0.7460    -6.8350 ca         1 C24      -0.196600
      9 C40         -4.5660     1.5010    -8.0310 c          1 C24       0.619700
     10 O21         -4.4400     2.7080    -8.0650 o          1 C24      -0.583100
     11 N22         -5.0950     0.8490    -9.0860 n          1 C24      -0.103300
     12 C23         -5.9940    -0.1950    -8.8820 ca         1 C24       0.385200
     13 C24         -6.6120    -0.3390    -7.6450 ca         1 C24      -0.283300
     14 C25         -7.5040    -1.3790    -7.4550 ca         1 C24      -0.033000
     15 C26         -7.7470    -2.2440    -8.5140 ca         1 C24      -0.256300
     16 C27         -7.0980    -2.0400    -9.7160 ca         1 C24       0.442200
     17 N28         -6.2580    -1.0360    -9.8690 nb         1 C24      -0.621000
     18 C29         -4.7240     1.2390   -10.4490 c3         1 C24       0.051000
     19 C30         -3.4990     0.4380   -10.8920 c3         1 C24      -0.094400
     20 C31         -3.1160     0.8390   -12.2930 c          1 C24       0.705100
     21 O32         -3.7570     1.6800   -12.8770 o          1 C24      -0.583000
     22 O33         -2.0620     0.2610   -12.8920 os         1 C24      -0.427900
     23 C34         -1.6940     0.6490   -14.2430 c3         1 C24       0.235400
     24 C35         -0.4690    -0.1540   -14.6860 c3         1 C24      -0.003100
     25 C20         -4.1490    -0.6540    -6.8540 ca         1 C24      -0.059000
     26 C21         -3.7600    -1.3630    -5.7550 ca         1 C24      -0.104000
     27 C14         -3.3560    -0.6990    -4.6040 ca         1 C24      -0.230200
     28 N13         -2.9190    -1.1150    -3.3650 na         1 C24       0.322700
     29 C17         -2.7610    -2.5020    -2.9210 c3         1 C24      -0.007400
     30 C3           1.3920     0.0000     0.0000 ca         1 C24      -0.174000
     31 C4           2.0810     0.0000     1.1920 ca         1 C24      -0.007000
     32 C5           1.3840    -0.0020     2.4010 ca         1 C24      -0.320900
     33 C7           2.1210    -0.0020     3.6820 ce         1 C24       0.233800
     34 N9           3.4260    -0.0020     3.6830 n2         1 C24      -0.528100
     35 N8           1.4320    -0.0040     4.8760 nz         1 C24       0.190400
     36 C6          -0.0120    -0.0020     2.3980 ca         1 C24      -0.007000
     37 C1          -0.6970     0.0040     1.2030 ca         1 C24      -0.174000
     38 H10N        -0.1930     0.0190    -2.0720 hn         1 C24       0.311800
     39 H111        -2.5210     0.8840    -0.6980 h1         1 C24       0.033700
     40 H112        -2.5200    -0.8850    -0.6990 h1         1 C24       0.033700
     41 H18         -3.5960     2.5020    -5.7240 ha         1 C24       0.138000
     42 H24         -6.3990     0.3550    -6.8410 ha         1 C24       0.138000
     43 H25         -8.0010    -1.5160    -6.5020 ha         1 C24       0.109000
     44 H26         -8.4380    -3.0700    -8.3990 ha         1 C24       0.119000
     45 H27         -7.2870    -2.7110   -10.5460 h4         1 C24      -0.015900
     46 H291        -4.4910     2.2970   -10.4710 h1         1 C24       0.059700
     47 H292        -5.5500     1.0370   -11.1200 h1         1 C24       0.059700
     48 H301        -2.6730     0.6400   -10.2200 hc         1 C24       0.041700
     49 H302        -3.7320    -0.6200   -10.8700 hc         1 C24       0.041700
     50 H341        -2.5200     0.4480   -14.9150 h1         1 C24       0.009200
     51 H342        -1.4590     1.7060   -14.2650 h1         1 C24       0.009200
     52 H351         0.3670     0.0750   -14.0380 hc         1 C24       0.011367
     53 H352        -0.6910    -1.2130   -14.6280 hc         1 C24       0.011367
     54 H353        -0.2170     0.1060   -15.7070 hc         1 C24       0.011367
     55 H20         -4.4690    -1.1780    -7.7470 ha         1 C24       0.133000
     56 H21         -3.7690    -2.4460    -5.7790 ha         1 C24       0.109000
     57 H171        -3.2250    -3.1670    -3.6400 h1         1 C24       0.025367
     58 H172        -3.2350    -2.6280    -1.9550 h1         1 C24       0.025367
     59 H173        -1.7070    -2.7380    -2.8390 h1         1 C24       0.025367
     60 H3           1.9340     0.0010    -0.9380 ha         1 C24       0.133000
     61 H4           3.1640     0.0000     1.1910 ha         1 C24       0.091500
     62 HN9          3.9280    -0.0010     2.8180 hn         1 C24       0.380400
     63 HN81         0.8620    -0.8250     4.9310 hn         1 C24       0.219133
     64 HN82         2.0830     0.0010     5.6360 hn         1 C24       0.219133
     65 H6          -0.5560    -0.0010     3.3350 ha         1 C24       0.091500
     66 H1          -1.7800     0.0040     1.2010 ha         1 C24       0.133000
     67 H83          0.8520     0.8090     4.9270 hn         1 C24       0.219133
@<TRIPOS>BOND
     1     1     2 1   
     2     1    30 ar  
     3     1    37 ar  
     4     2     3 1   
     5     2    38 1   
     6     3     4 1   
     7     3    39 1   
     8     3    40 1   
     9     4     5 2   
    10     4    28 1   
    11     5     6 1   
    12     6     7 ar  
    13     6    27 ar  
    14     7     8 ar  
    15     7    41 1   
    16     8     9 1   
    17     8    25 ar  
    18     9    10 2   
    19     9    11 1   
    20    11    12 1   
    21    11    18 1   
    22    12    13 ar  
    23    12    17 ar  
    24    13    14 ar  
    25    13    42 1   
    26    14    15 ar  
    27    14    43 1   
    28    15    16 ar  
    29    15    44 1   
    30    16    17 ar  
    31    16    45 1   
    32    18    19 1   
    33    18    46 1   
    34    18    47 1   
    35    19    20 1   
    36    19    48 1   
    37    19    49 1   
    38    20    21 2   
    39    20    22 1   
    40    22    23 1   
    41    23    24 1   
    42    23    50 1   
    43    23    51 1   
    44    24    52 1   
    45    24    53 1   
    46    24    54 1   
    47    25    26 ar  
    48    25    55 1   
    49    26    27 ar  
    50    26    56 1   
    51    27    28 1   
    52    28    29 1   
    53    29    57 1   
    54    29    58 1   
    55    29    59 1   
    56    30    31 ar  
    57    30    60 1   
    58    31    32 ar  
    59    31    61 1   
    60    32    33 1   
    61    32    36 ar  
    62    33    34 2   
    63    33    35 1   
    64    34    62 1   
    65    35    63 1   
    66    35    64 1   
    67    35    67 1   
    68    36    37 ar  
    69    36    65 1   
    70    37    66 1   
@<TRIPOS>SUBSTRUCTURE
     1 C24         1 TEMP              0 ****  ****    0 ROOT
