@<TRIPOS>MOLECULE
molecule
   67    70     1     0     0
SMALL
bcc


@<TRIPOS>ATOM
      1 C2           0.0000     0.0000     0.0000 ca         1 C24       0.259600
      2 N10         -0.6950     0.0000    -1.2060 nu         1 C24      -0.784600
      3 C11         -2.1580    -0.0010    -1.2090 c3         1 C24       0.232500
      4 C12         -2.6590    -0.0000    -2.6290 cc         1 C24       0.364800
      5 N16         -2.9070     1.0670    -3.3310 nd         1 C24      -0.560100
      6 C15         -3.3430     0.7070    -4.5670 ca         1 C24       0.063400
      7 C18         -3.7350     1.4280    -5.6930 ca         1 C24       0.008000
      8 C19         -4.1430     0.7460    -6.8350 ca         1 C24      -0.187600
      9 C40         -4.5660     1.5010    -8.0310 c          1 C24       0.698700
     10 O21         -4.4400     2.7080    -8.0650 o          1 C24      -0.545100
     11 N22         -5.0950     0.8490    -9.0860 n          1 C24      -0.481300
     12 C23         -5.9940    -0.1950    -8.8820 ca         1 C24       0.558200
     13 C24         -6.6120    -0.3390    -7.6450 ca         1 C24      -0.295300
     14 C25         -7.5040    -1.3790    -7.4550 ca         1 C24      -0.066000
     15 C26         -7.7470    -2.2440    -8.5140 ca         1 C24      -0.288300
     16 C27         -7.0980    -2.0400    -9.7160 ca         1 C24       0.457200
     17 N28         -6.2580    -1.0360    -9.8690 nb         1 C24      -0.737000
     18 C29         -4.7240     1.2390   -10.4490 c3         1 C24       0.126000
     19 C30         -3.4990     0.4380   -10.8920 c3         1 C24      -0.150400
     20 C31         -3.1160     0.8390   -12.2930 c          1 C24       0.643100
     21 O32         -3.7570     1.6800   -12.8770 o          1 C24      -0.549000
     22 O33         -2.0620     0.2610   -12.8920 os         1 C24      -0.443900
     23 C34         -1.6940     0.6490   -14.2430 c3         1 C24       0.153400
     24 C35         -0.4690    -0.1540   -14.6860 c3         1 C24      -0.096100
     25 C20         -4.1490    -0.6540    -6.8540 ca         1 C24      -0.065000
     26 C21         -3.7600    -1.3630    -5.7550 ca         1 C24      -0.145000
     27 C14         -3.3560    -0.6990    -4.6040 ca         1 C24      -0.059200
     28 N13         -2.9190    -1.1150    -3.3650 na         1 C24      -0.146300
     29 C17         -2.7610    -2.5020    -2.9210 c3         1 C24       0.035600
     30 C3           1.3920     0.0000     0.0000 ca         1 C24      -0.204000
     31 C4           2.0810     0.0000     1.1920 ca         1 C24      -0.029500
     32 C5           1.3840    -0.0020     2.4010 ca         1 C24      -0.271900
     33 C7           2.1210    -0.0020     3.6820 ce         1 C24       0.554800
     34 N9           3.4260    -0.0020     3.6830 n2         1 C24      -0.705100
     35 N8           1.4320    -0.0040     4.8760 nz         1 C24      -0.800600
     36 C6          -0.0120    -0.0020     2.3980 ca         1 C24      -0.029500
     37 C1          -0.6970     0.0040     1.2030 ca         1 C24      -0.204000
     38 H10N        -0.1930     0.0360    -2.0720 hn         1 C24       0.467800
     39 H111        -2.5200    -0.8850    -0.6990 h1         1 C24       0.067700
     40 H112        -2.5210     0.8830    -0.6980 h1         1 C24       0.067700
     41 H18         -3.8410     2.5050    -5.6370 ha         1 C24       0.173000
     42 H24         -6.3990     0.3550    -6.8410 ha         1 C24       0.152000
     43 H25         -8.0010    -1.5160    -6.5020 ha         1 C24       0.142000
     44 H26         -8.4380    -3.0700    -8.3990 ha         1 C24       0.144000
     45 H27         -7.2870    -2.7110   -10.5450 h4         1 C24       0.031100
     46 H291        -4.4910     2.2970   -10.4710 h1         1 C24       0.090200
     47 H292        -5.5500     1.0370   -11.1200 h1         1 C24       0.090200
     48 H301        -3.7320    -0.6200   -10.8700 hc         1 C24       0.079200
     49 H302        -2.6730     0.6400   -10.2200 hc         1 C24       0.079200
     50 H341        -2.5200     0.4480   -14.9150 h1         1 C24       0.049200
     51 H342        -1.4590     1.7060   -14.2650 h1         1 C24       0.049200
     52 H351         0.3480     0.0250   -13.9990 hc         1 C24       0.048033
     53 H352        -0.7120    -1.2100   -14.6910 hc         1 C24       0.048033
     54 H353        -0.1770     0.1530   -15.6830 hc         1 C24       0.048033
     55 H20         -4.4690    -1.1780    -7.7470 ha         1 C24       0.159000
     56 H21         -3.7690    -2.4460    -5.7790 ha         1 C24       0.136000
     57 H171        -3.1040    -2.5950    -1.8970 h1         1 C24       0.056700
     58 H172        -3.3470    -3.1540    -3.5580 h1         1 C24       0.056700
     59 H173        -1.7170    -2.7840    -2.9790 h1         1 C24       0.056700
     60 H3           1.9340     0.0010    -0.9380 ha         1 C24       0.158500
     61 H4           3.1640     0.0000     1.1910 ha         1 C24       0.135500
     62 HN9          3.9260    -0.0030     4.5500 hn         1 C24       0.426400
     63 HN81         0.8430     0.8030     4.9220 hn         1 C24       0.462133
     64 HN82         0.8710    -0.8310     4.9350 hn         1 C24       0.462133
     65 H6          -0.5560    -0.0010     3.3350 ha         1 C24       0.135500
     66 H1          -1.7800     0.0040     1.2010 ha         1 C24       0.158500
     67 H83          2.0820     0.0130     5.6360 hn         1 C24       0.462133
@<TRIPOS>BOND
     1     1     2 1
     2     1    30 ar
     3     1    37 ar
     4     2     3 1
     5     2    38 1
     6     3     4 1
     7     3    39 1
     8     3    40 1
     9     4     5 2
    10     4    28 1
    11     5     6 1
    12     6     7 ar
    13     6    27 ar
    14     7     8 ar
    15     7    41 1
    16     8     9 1
    17     8    25 ar
    18     9    10 2
    19     9    11 1
    20    11    12 1
    21    11    18 1
    22    12    13 ar
    23    12    17 ar
    24    13    14 ar
    25    13    42 1
    26    14    15 ar
    27    14    43 1
    28    15    16 ar
    29    15    44 1
    30    16    17 ar
    31    16    45 1
    32    18    19 1
    33    18    46 1
    34    18    47 1
    35    19    20 1
    36    19    48 1
    37    19    49 1
    38    20    21 2
    39    20    22 1
    40    22    23 1
    41    23    24 1
    42    23    50 1
    43    23    51 1
    44    24    52 1
    45    24    53 1
    46    24    54 1
    47    25    26 ar
    48    25    55 1
    49    26    27 ar
    50    26    56 1
    51    27    28 1
    52    28    29 1
    53    29    57 1
    54    29    58 1
    55    29    59 1
    56    30    31 ar
    57    30    60 1
    58    31    32 ar
    59    31    61 1
    60    32    33 1
    61    32    36 ar
    62    33    34 2
    63    33    35 1
    64    34    62 1
    65    35    63 1
    66    35    64 1
    67    36    37 ar
    68    36    65 1
    69    37    66 1
    70    67    35 1
@<TRIPOS>SUBSTRUCTURE
     1 C24         1 TEMP              0 ****  ****    0 ROOT
