@<TRIPOS>MOLECULE
C26
   30    29     1     0     0
SMALL
bcc


@<TRIPOS>ATOM
      1 O4          1.0960   -1.0530   -1.2000 o         1 C26     -0.755200
      2 S1          2.0780   -0.1360   -0.8220 s6        1 C26      1.694300
      3 O2          2.7700   -0.4160    0.3530 o         1 C26     -0.755200
      4 O3          2.8300    0.3890   -1.8750 o         1 C26     -0.755200
      5 O1          1.1260    1.2290   -0.3400 os        1 C26     -0.606500
      6 C1          0.1370    1.7330   -1.1730 c3        1 C26      0.215400
      7 C2          0.6910    2.8370   -2.0890 c3        1 C26     -0.113700
      8 C7          1.1200    4.0490   -1.2810 c3        1 C26     -0.068400
      9 C8         -0.0110    4.9010   -0.7650 c3        1 C26     -0.085100
     10 C3         -0.3220    3.1550   -3.1740 c3        1 C26     -0.068400
     11 C4          0.2330    4.0980   -4.2210 c3        1 C26     -0.079400
     12 C5         -0.7550    4.3150   -5.3480 c3        1 C26     -0.080400
     13 C6         -0.2150    5.2650   -6.3850 c3        1 C26     -0.089100
     14 H1C1       -0.6760    2.1510   -0.5180 h1        1 C26      0.013700
     15 H1C2       -0.2990    0.9070   -1.8040 h1        1 C26      0.013700
     16 H2          1.6210    2.4130   -2.5740 hc        1 C26      0.089700
     17 H7C1        1.7240    3.6700   -0.4110 hc        1 C26      0.043200
     18 H7C2        1.7970    4.6860   -1.9110 hc        1 C26      0.043200
     19 H8C1       -0.5420    5.4140   -1.6030 hc        1 C26      0.020033
     20 H8C2        0.3840    5.6840   -0.0720 hc        1 C26      0.020033
     21 H8C3       -0.7520    4.2790   -0.2070 hc        1 C26      0.020033
     22 H3C1       -0.6300    2.1970   -3.6730 hc        1 C26      0.031700
     23 H3C2       -1.2440    3.6000   -2.7160 hc        1 C26      0.031700
     24 H4C1        1.1880    3.6790   -4.6330 hc        1 C26      0.040700
     25 H4C2        0.4810    5.0840   -3.7450 hc        1 C26      0.040700
     26 H5C1       -0.9940    3.3290   -5.8290 hc        1 C26      0.033700
     27 H5C2       -1.7150    4.7180   -4.9310 hc        1 C26      0.033700
     28 H6C1       -0.9560    5.4080   -7.2080 hc        1 C26      0.025033
     29 H6C2        0.0040    6.2610   -5.9300 hc        1 C26      0.025033
     30 H6C3        0.7310    4.8680   -6.8270 hc        1 C26      0.025033
@<TRIPOS>BOND
     1    1    2 1   
     2    2    3 1   
     3    2    4 1   
     4    2    5 1   
     5    5    6 1   
     6    6    7 1   
     7    6   14 1   
     8    6   15 1   
     9    7    8 1   
    10    7   10 1   
    11    7   16 1   
    12    8    9 1   
    13    8   17 1   
    14    8   18 1   
    15    9   19 1   
    16    9   20 1   
    17    9   21 1   
    18   10   11 1   
    19   10   22 1   
    20   10   23 1   
    21   11   12 1   
    22   11   24 1   
    23   11   25 1   
    24   12   13 1   
    25   12   26 1   
    26   12   27 1   
    27   13   28 1   
    28   13   29 1   
    29   13   30 1   
@<TRIPOS>SUBSTRUCTURE
     1 C26         1 TEMP              0 ****  ****    0 ROOT
