@<TRIPOS>MOLECULE
molecule
   30    29     1     0     0
SMALL
bcc


@<TRIPOS>ATOM
      1 O4           0.0000     0.0000     0.0000 o          1 C26      -0.741867
      2 S1           1.4210     0.0000     0.0000 s6         1 C26       1.559300
      3 O2           2.2420     0.0000     1.1590 o          1 C26      -0.741867
      4 O3           1.8340    -1.2280    -0.7990 o          1 C26      -0.741867
      5 O1           1.8340     1.2250    -0.8020 os         1 C26      -0.587500
      6 C1           0.7320     1.5580    -1.6470 c3         1 C26       0.155400
      7 C2           1.0830     2.7870    -2.4850 c3         1 C26      -0.071700
      8 C7           1.2660     3.9960    -1.5640 c3         1 C26      -0.077400
      9 C8          -0.0470     4.2830    -0.8340 c3         1 C26      -0.096100
     10 C3          -0.0450     3.0690    -3.4780 c3         1 C26      -0.080400
     11 C4           0.3070     4.3000    -4.3150 c3         1 C26      -0.082400
     12 C5          -0.8220     4.5810    -5.3090 c3         1 C26      -0.085400
     13 C6          -0.4700     5.8120    -6.1460 c3         1 C26      -0.092100
     14 H1C1         0.5160     0.7230    -2.3030 h1         1 C26       0.062700
     15 H1C2        -0.1370     1.7720    -1.0370 h1         1 C26       0.062700
     16 H2           2.0030     2.6040    -3.0270 hc         1 C26       0.056700
     17 H7C1         2.0430     3.7840    -0.8400 hc         1 C26       0.042700
     18 H7C2         1.5480     4.8600    -2.1540 hc         1 C26       0.042700
     19 H8C1        -0.4280     5.2490    -1.1420 hc         1 C26       0.030700
     20 H8C2         0.1280     4.2880     0.2350 hc         1 C26       0.030700
     21 H8C3        -0.7710     3.5150    -1.0780 hc         1 C26       0.030700
     22 H3C1        -0.9650     3.2520    -2.9360 hc         1 C26       0.042700
     23 H3C2        -0.1740     2.2140    -4.1300 hc         1 C26       0.042700
     24 H4C1         0.4350     5.1560    -3.6630 hc         1 C26       0.040700
     25 H4C2         1.2270     4.1180    -4.8560 hc         1 C26       0.040700
     26 H5C1        -1.7420     4.7640    -4.7670 hc         1 C26       0.038200
     27 H5C2        -0.9500     3.7260    -5.9600 hc         1 C26       0.038200
     28 H6C1         0.4440     5.6250    -6.6960 hc         1 C26       0.027033
     29 H6C2        -0.3320     6.6650    -5.4940 hc         1 C26       0.027033
     30 H6C3        -1.2750     6.0160    -6.8420 hc         1 C26       0.027033
@<TRIPOS>BOND
     1     1     2 1
     2     2     3 1
     3     2     4 1
     4     2     5 1
     5     5     6 1
     6     6     7 1
     7     6    14 1
     8     6    15 1
     9     7     8 1
    10     7    10 1
    11     7    16 1
    12     8     9 1
    13     8    17 1
    14     8    18 1
    15     9    19 1
    16     9    20 1
    17     9    21 1
    18    10    11 1
    19    10    22 1
    20    10    23 1
    21    11    12 1
    22    11    24 1
    23    11    25 1
    24    12    13 1
    25    12    26 1
    26    12    27 1
    27    13    28 1
    28    13    29 1
    29    13    30 1
@<TRIPOS>SUBSTRUCTURE
     1 C26         1 TEMP              0 ****  ****    0 ROOT
