@<TRIPOS>MOLECULE
C27
   52    54     1     0     0
SMALL
bcc


@<TRIPOS>ATOM
      1 C1           0.0000     0.0000     0.0000 c3         1 C27       0.244700
      2 O2           1.4290     0.0000     0.0000 os         1 C27      -0.304900
      3 C3           2.0460     0.0000     1.2110 ca         1 C27       0.165100
      4 C4           1.2900     0.0010     2.3750 ca         1 C27      -0.201000
      5 C5           1.9140     0.0010     3.6090 ca         1 C27      -0.052000
      6 C6           3.2920     0.0010     3.6900 ca         1 C27      -0.152000
      7 C7           4.0580    -0.0010     2.5260 cp         1 C27      -0.005000
      8 C8           3.4290    -0.0060     1.2830 ca         1 C27      -0.135000
      9 C9           5.5400    -0.0010     2.6100 cp         1 C27      -0.011000
     10 C10          6.3060    -0.0020     1.4470 ca         1 C27      -0.085000
     11 C11          7.6840    -0.0020     1.5300 ca         1 C27      -0.080000
     12 C12          8.3040    -0.0020     2.7670 ca         1 C27      -0.099000
     13 C13          7.5470    -0.0010     3.9260 ca         1 C27      -0.113300
     14 C14          8.2300     0.0010     5.2690 c3         1 C27       0.015900
     15 C15          8.4270     1.2300     5.6560 c3         1 C27      -0.034400
     16 C16          9.0130     1.2330     7.0690 c3         1 C27       0.126200
     17 C17          9.0680     2.4700     7.4780 c3         1 C27      -0.050100
     18 C18         10.4560     0.6920     6.9890 c3         1 C27      -0.134400
     19 C19         10.7470    -0.5350     7.8320 c          1 C27       0.627500
     20 O20         11.8520    -1.0360     7.8380 o          1 C27      -0.564500
     21 N21          9.7510    -1.0540     8.5740 n          1 C27      -0.044300
     22 C22         10.0370    -2.2390     9.3870 c3         1 C27       0.025300
     23 C23          8.4850    -0.5340     8.6080 c2         1 C27       0.119800
     24 N24          8.0870     0.5030     7.9480 n2         1 C27      -0.450900
     25 N25          7.5650    -1.1660     9.4100 nz         1 C27       0.162400
     26 C26          6.1690     0.0060     3.8530 ca         1 C27      -0.103000
     27 H1C1        -0.3610     0.8850     0.5100 h1         1 C27       0.001033
     28 H1C2        -0.3610    -0.8840     0.5110 h1         1 C27       0.001033
     29 H1C3        -0.3610    -0.0010    -1.0210 h1         1 C27       0.001033
     30 H4           0.2080     0.0020     2.3170 ha         1 C27       0.126000
     31 H8           4.0200    -0.0070     0.3750 ha         1 C27       0.127000
     32 H5           1.3200     0.0020     4.5150 ha         1 C27       0.100000
     33 H6           3.7770     0.0030     4.6580 ha         1 C27       0.100000
     34 H10          5.8210    -0.0020     0.4780 ha         1 C27       0.124000
     35 H26          5.5780     0.0070     4.7600 ha         1 C27       0.108000
     36 H11          8.2810    -0.0030     0.6260 ha         1 C27       0.113000
     37 H12          9.3850    -0.0020     2.8290 ha         1 C27       0.104000
     38 H141         7.6050    -0.5090     5.9920 hc         1 C27       0.008700
     39 H142         9.1820    -0.5090     5.1910 hc         1 C27       0.008700
     40 H151         9.1170     1.7160     4.9770 hc         1 C27       0.055200
     41 H152         7.4840     1.7640     5.6550 hc         1 C27       0.055200
     42 H171         8.0640     2.8680     7.5570 hc         1 C27       0.040367
     43 H172         9.5490     2.5090     8.4470 hc         1 C27       0.040367
     44 H173         9.6360     3.0600     6.7690 hc         1 C27       0.040367
     45 H181        11.0930     1.4790     7.3740 hc         1 C27       0.084200
     46 H182        10.6080     0.3920     5.9590 hc         1 C27       0.084200
     47 H221        11.0680    -2.5380     9.2410 h1         1 C27       0.040367
     48 H222         9.3810    -3.0480     9.0890 h1         1 C27       0.040367
     49 H223         9.8720    -2.0070    10.4330 h1         1 C27       0.040367
     50 H251         6.7030    -0.6570     9.3940 hn         1 C27       0.230133
     51 H252         7.4100    -2.0950     9.0720 hn         1 C27       0.230133
     52 H253         7.9110    -1.2060    10.3480 hn         1 C27       0.230133
@<TRIPOS>BOND
     1     1     2 1   
     2     1    27 1   
     3     1    28 1   
     4     1    29 1   
     5     2     3 1   
     6     3     4 ar  
     7     3     8 ar  
     8     4     5 ar  
     9     4    30 1   
    10     5     6 ar  
    11     5    32 1   
    12     6     7 ar  
    13     6    33 1   
    14     7     8 ar  
    15     7     9 1   
    16     8    31 1   
    17     9    10 ar  
    18     9    26 ar  
    19    10    11 ar  
    20    10    34 1   
    21    11    12 ar  
    22    11    36 1   
    23    12    13 ar  
    24    12    37 1   
    25    13    14 1   
    26    13    26 ar  
    27    14    15 1   
    28    14    38 1   
    29    14    39 1   
    30    15    16 1   
    31    15    40 1   
    32    15    41 1   
    33    16    17 1   
    34    16    18 1   
    35    16    24 1   
    36    17    42 1   
    37    17    43 1   
    38    17    44 1   
    39    18    19 1   
    40    18    45 1   
    41    18    46 1   
    42    19    20 2   
    43    19    21 1   
    44    21    22 1   
    45    21    23 1   
    46    22    47 1   
    47    22    48 1   
    48    22    49 1   
    49    23    24 2   
    50    23    25 1   
    51    25    50 1   
    52    25    51 1   
    53    25    52 1   
    54    26    35 1   
@<TRIPOS>SUBSTRUCTURE
     1 C27         1 TEMP              0 ****  ****    0 ROOT
