@<TRIPOS>MOLECULE
molecule
   52    54     1     0     0
SMALL
bcc


@<TRIPOS>ATOM
      1 C1           0.0000     0.0000     0.0000 c3         1 C27       0.127700
      2 O2           1.4290     0.0000     0.0000 os         1 C27      -0.324900
      3 C3           2.0460     0.0000     1.2110 ca         1 C27       0.153100
      4 C4           1.2900     0.0010     2.3750 ca         1 C27      -0.211000
      5 C5           1.9140     0.0010     3.6090 ca         1 C27      -0.088000
      6 C6           3.2920     0.0010     3.6900 ca         1 C27      -0.166000
      7 C7           4.0580    -0.0010     2.5260 cp         1 C27      -0.011000
      8 C8           3.4290    -0.0060     1.2830 ca         1 C27      -0.146000
      9 C9           5.5400    -0.0010     2.6100 cp         1 C27      -0.018000
     10 C10          6.3060    -0.0020     1.4470 ca         1 C27      -0.106000
     11 C11          7.6840    -0.0020     1.5300 ca         1 C27      -0.112000
     12 C12          8.3040    -0.0020     2.7670 ca         1 C27      -0.123000
     13 C13          7.5470    -0.0010     3.9260 ca         1 C27      -0.106300
     14 C14          8.2300     0.0010     5.2690 c3         1 C27      -0.037100
     15 C15          8.4270     1.2300     5.6560 c3         1 C27      -0.065400
     16 C16          9.0130     1.2330     7.0690 c3         1 C27       0.160200
     17 C17          9.0680     2.4700     7.4780 c3         1 C27      -0.121100
     18 C18         10.4560     0.6920     6.9890 c3         1 C27      -0.181400
     19 C19         10.7470    -0.5350     7.8320 c          1 C27       0.713500
     20 O20         11.8520    -1.0360     7.8380 o          1 C27      -0.538500
     21 N21          9.7510    -1.0540     8.5740 n          1 C27      -0.431300
     22 C22         10.0370    -2.2390     9.3870 c3         1 C27       0.043300
     23 C23          8.4850    -0.5340     8.6080 c2         1 C27       0.507800
     24 N24          8.0870     0.5030     7.9480 n2         1 C27      -0.582900
     25 N25          7.5650    -1.1660     9.4100 nz         1 C27      -0.748600
     26 C26          6.1690     0.0060     3.8530 ca         1 C27      -0.120000
     27 H1C1        -0.3610     0.8850     0.5100 h1         1 C27       0.046033
     28 H1C2        -0.3610    -0.8840     0.5110 h1         1 C27       0.046033
     29 H1C3        -0.3610    -0.0010    -1.0210 h1         1 C27       0.046033
     30 H4           0.2080     0.0020     2.3170 ha         1 C27       0.142000
     31 H8           4.0200    -0.0070     0.3750 ha         1 C27       0.150000
     32 H5           1.3200     0.0020     4.5150 ha         1 C27       0.131000
     33 H6           3.7770     0.0030     4.6580 ha         1 C27       0.119000
     34 H10          5.8210    -0.0020     0.4780 ha         1 C27       0.149000
     35 H26          5.5780     0.0070     4.7600 ha         1 C27       0.126000
     36 H11          8.2810    -0.0030     0.6260 ha         1 C27       0.144000
     37 H12          9.3850    -0.0020     2.8290 ha         1 C27       0.129000
     38 H141         7.6050    -0.5090     5.9920 hc         1 C27       0.034700
     39 H142         9.1820    -0.5090     5.1910 hc         1 C27       0.034700
     40 H151         9.1170     1.7160     4.9770 hc         1 C27       0.080200
     41 H152         7.4840     1.7640     5.6550 hc         1 C27       0.080200
     42 H171         8.0640     2.8680     7.5570 hc         1 C27       0.068367
     43 H172         9.5490     2.5090     8.4470 hc         1 C27       0.068367
     44 H173         9.6360     3.0600     6.7690 hc         1 C27       0.068367
     45 H181        11.0930     1.4790     7.3740 hc         1 C27       0.114200
     46 H182        10.6080     0.3920     5.9590 hc         1 C27       0.114200
     47 H221        11.0680    -2.5380     9.2410 h1         1 C27       0.070700
     48 H222         9.3810    -3.0480     9.0890 h1         1 C27       0.070700
     49 H223         9.8720    -2.0070    10.4330 h1         1 C27       0.070700
     50 H251         6.7030    -0.6570     9.3940 hn         1 C27       0.477133
     51 H252         7.4100    -2.0950     9.0720 hn         1 C27       0.477133
     52 H253         7.9110    -1.2060    10.3480 hn         1 C27       0.477133
@<TRIPOS>BOND
     1     1     2 1
     2     2     3 1
     3     3     4 ar
     4     3     8 ar
     5     4     5 ar
     6     5     6 ar
     7     6     7 ar
     8     7     8 ar
     9     7     9 1
    10     9    10 ar
    11     9    26 ar
    12    10    11 ar
    13    11    12 ar
    14    12    13 ar
    15    13    14 1
    16    13    26 ar
    17    14    15 1
    18    15    16 1
    19    16    17 1
    20    16    18 1
    21    16    24 1
    22    18    19 1
    23    19    20 2
    24    19    21 1
    25    21    22 1
    26    21    23 1
    27    23    24 2
    28    23    25 1
    29     1    27 1
    30     1    28 1
    31     1    29 1
    32     4    30 1
    33     8    31 1
    34     5    32 1
    35     6    33 1
    36    10    34 1
    37    26    35 1
    38    11    36 1
    39    12    37 1
    40    14    38 1
    41    14    39 1
    42    15    40 1
    43    15    41 1
    44    17    42 1
    45    17    43 1
    46    17    44 1
    47    18    45 1
    48    18    46 1
    49    22    47 1
    50    22    48 1
    51    22    49 1
    52    25    50 1
    53    25    51 1
    54    52    25 1
@<TRIPOS>SUBSTRUCTURE
     1 C27         1 TEMP              0 ****  ****    0 ROOT
