@<TRIPOS>MOLECULE
molecule
   59    61     1     0     0
SMALL
bcc


@<TRIPOS>ATOM
      1 C2           0.0000     0.0000     0.0000 ca         1 C28       0.160900
      2 C4           0.0020    -0.0090     2.3960 ca         1 C28      -0.071000
      3 C5           1.3850    -0.0100     2.3940 ca         1 C28      -0.148300
      4 C6           2.0750     0.0000     1.1970 ca         1 C28      -0.071000
      5 C1           1.3850     0.0000     0.0000 ca         1 C28      -0.169000
      6 C3          -0.6900    -0.0040     1.2000 ca         1 C28      -0.169000
      7 C8           2.1390    -0.0150     3.6990 c3         1 C28       0.160800
      8 F7          -0.6750     0.0060    -1.1700 f          1 C28      -0.127900
      9 N9           3.3030     0.8740     3.5950 n7         1 C28      -0.767200
     10 C10          2.6110    -1.4380     4.0090 c3         1 C28       0.619900
     11 C11          3.6270     1.3060     4.9610 c3         1 C28       0.085500
     12 C12          2.7800     2.4980     5.3250 c          1 C28       0.634100
     13 C13          5.1060     1.6890     5.0380 c3         1 C28      -0.232600
     14 S14          6.1260     0.2530     4.6010 s6         1 C28       1.342900
     15 N15          7.6710     0.8340     4.7330 n3         1 C28      -0.825500
     16 N16          2.9060     3.0690     6.5390 ns         1 C28      -0.570900
     17 O17          1.9860     2.9450     4.5250 o          1 C28      -0.588100
     18 C18          2.1680     4.2960     6.8520 cx         1 C28      -0.038600
     19 C19          0.6960     4.1530     7.2440 cx         1 C28      -0.091900
     20 C20          1.7390     4.5100     8.3060 cx         1 C28      -0.091900
     21 O21          6.0780    -0.7490     5.6070 o          1 C28      -0.591300
     22 F22          3.3110    -1.4430     5.2200 f          1 C28      -0.212633
     23 F23          1.5020    -2.2860     4.1070 f          1 C28      -0.212633
     24 F24          3.4500    -1.8850     2.9830 f          1 C28      -0.212633
     25 O25          6.0240    -0.0590     3.2180 o          1 C28      -0.591300
     26 C26          8.4120     0.7520     6.0040 c3         1 C28       0.194300
     27 C27          9.8150     0.2110     5.7050 c3         1 C28       0.118900
     28 O28         10.4490     1.0380     4.7290 os         1 C28      -0.396600
     29 C29          9.7640     0.8510     3.4910 c3         1 C28       0.118900
     30 C30          8.3590     1.4450     3.5840 c3         1 C28       0.194300
     31 N32          3.7700     6.1350     6.6340 nz         1 C28      -0.811600
     32 C31          2.5680     5.5310     6.0440 c3         1 C28       0.129800
     33 H4          -0.5380    -0.0140     3.3340 ha         1 C28       0.151000
     34 H6           3.1590    -0.0010     1.1970 ha         1 C28       0.151000
     35 H1           1.9270     0.0060    -0.9380 ha         1 C28       0.156500
     36 H3          -1.7740    -0.0040     1.2020 ha         1 C28       0.156500
     37 H8           1.4900     0.3310     4.4940 h1         1 C28       0.065700
     38 HN9          3.0640     1.6730     3.0410 hn         1 C28       0.404800
     39 H11          3.4270     0.4960     5.6530 h1         1 C28       0.118700
     40 H131         5.3060     2.4980     4.3460 h1         1 C28       0.087700
     41 H132         5.3450     2.0080     6.0460 h1         1 C28       0.087700
     42 HN16         3.4760     2.6370     7.2390 hn         1 C28       0.335500
     43 H191         0.0480     4.9640     6.9340 hc         1 C28       0.101450
     44 H192         0.3180     3.1380     7.2830 hc         1 C28       0.101450
     45 H201         1.7290     5.5390     8.6440 hc         1 C28       0.101450
     46 H202         1.9990     3.7130     8.9920 hc         1 C28       0.101450
     47 H261         8.4890     1.7390     6.4450 h1         1 C28       0.058200
     48 H262         7.9000     0.0810     6.6820 h1         1 C28       0.058200
     49 H271        10.4030     0.2140     6.6150 h1         1 C28       0.064700
     50 H272         9.7360    -0.8000     5.3240 h1         1 C28       0.064700
     51 H291        10.3120     1.3470     2.6990 h1         1 C28       0.064700
     52 H292         9.6920    -0.2090     3.2770 h1         1 C28       0.064700
     53 H301         8.4270     2.5160     3.7280 h1         1 C28       0.058200
     54 H302         7.8120     1.2270     2.6740 h1         1 C28       0.058200
     55 H321         4.3140     6.5680     5.9140 hn         1 C28       0.456800
     56 H322         3.5010     6.8230     7.3090 hn         1 C28       0.456800
     57 H311         1.7580     6.2510     6.0600 hx         1 C28       0.126700
     58 H312         2.7740     5.2420     5.0210 hx         1 C28       0.126700
     59 H323         4.3150     5.4240     7.0810 hn         1 C28       0.456800
@<TRIPOS>BOND
     1     1     5 ar
     2     1     6 ar
     3     1     8 1
     4     2     3 ar
     5     2     6 ar
     6     2    33 1
     7     3     4 ar
     8     3     7 1
     9     4     5 ar
    10     4    34 1
    11     5    35 1
    12     6    36 1
    13     7     9 1
    14     7    10 1
    15     7    37 1
    16     9    11 1
    17     9    38 1
    18    10    22 1
    19    10    23 1
    20    10    24 1
    21    11    12 1
    22    11    13 1
    23    11    39 1
    24    12    16 1
    25    12    17 2
    26    13    14 1
    27    13    40 1
    28    13    41 1
    29    14    15 1
    30    14    21 2
    31    14    25 2
    32    15    26 1
    33    15    30 1
    34    16    18 1
    35    16    42 1
    36    18    19 1
    37    18    20 1
    38    18    32 1
    39    19    20 1
    40    19    43 1
    41    19    44 1
    42    20    45 1
    43    20    46 1
    44    26    27 1
    45    26    47 1
    46    26    48 1
    47    27    28 1
    48    27    49 1
    49    27    50 1
    50    28    29 1
    51    29    30 1
    52    29    51 1
    53    29    52 1
    54    30    53 1
    55    30    54 1
    56    31    32 1
    57    31    55 1
    58    31    56 1
    59    32    57 1
    60    32    58 1
    61    59    31 1
@<TRIPOS>SUBSTRUCTURE
     1 C28         1 TEMP              0 ****  ****    0 ROOT
