@<TRIPOS>MOLECULE
molecule
   24    25     1     0     0
SMALL
bcc


@<TRIPOS>ATOM
      1 O14          0.0000     0.0000     0.0000 o          1 C29      -0.837300
      2 C12          1.2160     0.0000     0.0000 c          1 C29       0.884200
      3 O13          1.8890     0.0000     1.1680 o          1 C29      -0.837300
      4 C7           1.9530    -0.0060    -1.2760 ca         1 C29      -0.093600
      5 C3           1.2580    -0.0060    -2.4880 ca         1 C29      -0.109000
      6 C1           1.9510    -0.0060    -3.6850 ca         1 C29       0.069100
      7 O4           1.2440    -0.0170    -4.8490 os         1 C29      -0.336900
      8 C8           1.9650     0.3040    -6.0420 c3         1 C29       0.139400
      9 C9           3.2930    -0.4650    -6.0110 c3         1 C29       0.123800
     10 N5           4.0790     0.0050    -4.8650 nh         1 C29      -0.597000
     11 C10          5.3160    -0.7740    -4.7210 c3         1 C29       0.161100
     12 C2           3.3440    -0.0020    -3.6840 ca         1 C29       0.001600
     13 C6           4.0350    -0.0040    -2.4710 ca         1 C29      -0.167000
     14 C11          3.3510    -0.0060    -1.2790 ca         1 C29      -0.102000
     15 H2           0.1750    -0.0010    -2.4910 ha         1 C29       0.160000
     16 H3           2.1600     1.3690    -6.0750 h1         1 C29       0.049700
     17 H4           3.0850    -1.5200    -5.8860 h1         1 C29       0.039700
     18 H5           6.0500    -0.1890    -4.1790 h1         1 C29       0.031033
     19 H6           5.7040    -1.0210    -5.7010 h1         1 C29       0.031033
     20 H7           5.1070    -1.6860    -4.1750 h1         1 C29       0.031033
     21 H8           5.1190    -0.0050    -2.4690 ha         1 C29       0.113000
     22 H9           3.8950     0.0130    -0.3420 ha         1 C29       0.156000
     23 H10          1.3890     0.0030    -6.9090 h1         1 C29       0.049700
     24 H11          3.8400    -0.2570    -6.9220 h1         1 C29       0.039700
@<TRIPOS>BOND
     1     8     9 1
     2     8     7 1
     3     9    10 1
     4     7     6 1
     5    10    11 1
     6    10    12 1
     7     6    12 ar
     8     6     5 ar
     9    12    13 ar
    10     5     4 ar
    11    13    14 ar
    12     4    14 ar
    13     4     2 1
    14     1     2 1
    15     2     3 1
    16     5    15 1
    17     8    16 1
    18     9    17 1
    19    11    18 1
    20    11    19 1
    21    11    20 1
    22    13    21 1
    23    14    22 1
    24     8    23 1
    25     9    24 1
@<TRIPOS>SUBSTRUCTURE
     1 C29         1 TEMP              0 ****  ****    0 ROOT
