@<TRIPOS>MOLECULE
C29
   24    25     1     0     0
SMALL
bcc


@<TRIPOS>ATOM
      1 O14          0.0000     0.0000     0.0000 o          1 C29      -0.885800
      2 C12          1.2160     0.0000     0.0000 c          1 C29       0.974200
      3 O13          1.8890     0.0000     1.1680 o          1 C29      -0.885800
      4 C7           1.9530    -0.0060    -1.2760 ca         1 C29      -0.089600
      5 C3           1.2580    -0.0060    -2.4880 ca         1 C29      -0.093000
      6 C1           1.9510    -0.0060    -3.6850 ca         1 C29       0.079100
      7 O4           1.2440    -0.0170    -4.8490 os         1 C29      -0.311900
      8 C8           1.9650     0.3040    -6.0420 c3         1 C29       0.208400
      9 C9           3.2930    -0.4650    -6.0110 c3         1 C29       0.097800
     10 N5           4.0790     0.0050    -4.8650 nh         1 C29      -0.359000
     11 C10          5.3160    -0.7740    -4.7210 c3         1 C29       0.170100
     12 C2           3.3440    -0.0020    -3.6840 ca         1 C29      -0.090400
     13 C6           4.0350    -0.0040    -2.4710 ca         1 C29      -0.152000
     14 C11          3.3510    -0.0060    -1.2790 ca         1 C29      -0.076000
     15 H2           0.1750    -0.0010    -2.4910 ha         1 C29       0.133000
     16 H3           2.1600     1.3690    -6.0750 h1         1 C29       0.008700
     17 H4           3.0850    -1.5200    -5.8860 h1         1 C29       0.014200
     18 H5           6.0500    -0.1890    -4.1790 h1         1 C29       0.002033
     19 H6           5.7040    -1.0210    -5.7010 h1         1 C29       0.002033
     20 H7           5.1070    -1.6860    -4.1750 h1         1 C29       0.002033
     21 H8           5.1190    -0.0050    -2.4690 ha         1 C29       0.098000
     22 H9           3.8950     0.0130    -0.3420 ha         1 C29       0.130000
     23 H10          1.3890     0.0030    -6.9090 h1         1 C29       0.008700
     24 H11          3.8400    -0.2570    -6.9220 h1         1 C29       0.014200
@<TRIPOS>BOND
     1     1     2 1   
     2     2     3 1   
     3     2     4 1   
     4     4     5 ar  
     5     4    14 ar  
     6     5     6 ar  
     7     5    15 1   
     8     6     7 1   
     9     6    12 ar  
    10     7     8 1   
    11     8     9 1   
    12     8    16 1   
    13     8    23 1   
    14     9    10 1   
    15     9    17 1   
    16     9    24 1   
    17    10    11 1   
    18    10    12 1   
    19    11    18 1   
    20    11    19 1   
    21    11    20 1   
    22    12    13 ar  
    23    13    14 ar  
    24    13    21 1   
    25    14    22 1   
@<TRIPOS>SUBSTRUCTURE
     1 C29         1 TEMP              0 ****  ****    0 ROOT
