@<TRIPOS>MOLECULE
molecule
   18    18     1     0     0
SMALL
bcc


@<TRIPOS>ATOM
      1 N            0.0000     0.0000     0.0000 nz         1 C2A      -0.811600
      2 C            1.4700     0.0000     0.0000 c3         1 C2A       0.162100
      3 C1           1.9710     0.0000     1.4210 ca         1 C2A      -0.189300
      4 C2           2.2020    -1.1980     2.0720 ca         1 C2A      -0.102000
      5 C3           2.6610    -1.1990     3.3750 ca         1 C2A      -0.102000
      6 C4           2.8930    -0.0030     4.0280 ca         1 C2A      -0.068000
      7 C5           2.6630     1.1960     3.3770 ca         1 C2A       0.032400
      8 C6           2.2060     1.1960     2.0710 ca         1 C2A      -0.100000
      9 Cl8          2.9540     2.6990     4.1960 cl         1 C2A      -0.047400
     10 HN1         -0.3340    -0.8960     0.2950 hn         1 C2A       0.455800
     11 HN2         -0.3340     0.1930    -0.9240 hn         1 C2A       0.455800
     12 HC1          1.8310    -0.8850    -0.5110 hx         1 C2A       0.114700
     13 HC2          1.8310     0.8840    -0.5110 hx         1 C2A       0.114700
     14 H2           2.0210    -2.1360     1.5610 ha         1 C2A       0.140000
     15 H3           2.8410    -2.1380     3.8850 ha         1 C2A       0.167000
     16 H4           3.2520    -0.0040     5.0500 ha         1 C2A       0.174000
     17 H6           2.0270     2.1350     1.5600 ha         1 C2A       0.149000
     18 HN3         -0.3340     0.7350     0.5920 hn         1 C2A       0.455800
@<TRIPOS>BOND
     1     1     2 1
     2     1    10 1
     3     1    11 1
     4     2     3 1
     5     2    12 1
     6     2    13 1
     7     3     4 ar
     8     3     8 ar
     9     4     5 ar
    10     4    14 1
    11     5     6 ar
    12     5    15 1
    13     6     7 ar
    14     6    16 1
    15     7     8 ar
    16     7     9 1
    17     8    17 1
    18    18     1 1
@<TRIPOS>SUBSTRUCTURE
     1 C2A         1 TEMP              0 ****  ****    0 ROOT
