@<TRIPOS>MOLECULE
C2A
   18    18     1     0     0
SMALL
bcc


@<TRIPOS>ATOM
      1 N            0.0000     0.0000     0.0000 nz         1 C2A       0.074400
      2 C            1.4700     0.0000     0.0000 c3         1 C2A       0.040100
      3 C1           1.9710     0.0000     1.4210 ca         1 C2A      -0.205300
      4 C2           2.2020    -1.1980     2.0720 ca         1 C2A      -0.072000
      5 C3           2.6610    -1.1990     3.3750 ca         1 C2A      -0.066000
      6 C4           2.8930    -0.0030     4.0280 ca         1 C2A      -0.037000
      7 C5           2.6630     1.1960     3.3770 ca         1 C2A      -0.043600
      8 C6           2.2060     1.1960     2.0710 ca         1 C2A      -0.070000
      9 Cl8          2.9540     2.6990     4.1960 cl         1 C2A       0.051600
     10 HN1         -0.3340    -0.8960     0.2950 hn         1 C2A       0.223467
     11 HN2         -0.3340     0.1930    -0.9240 hn         1 C2A       0.223467
     12 HC1          1.8310    -0.8850    -0.5110 hx         1 C2A       0.082700
     13 HC2          1.8310     0.8840    -0.5110 hx         1 C2A       0.082700
     14 H2           2.0210    -2.1360     1.5610 ha         1 C2A       0.110000
     15 H3           2.8410    -2.1380     3.8850 ha         1 C2A       0.130000
     16 H4           3.2520    -0.0040     5.0500 ha         1 C2A       0.135000
     17 H6           2.0270     2.1350     1.5600 ha         1 C2A       0.118000
     18 HN3         -0.3340     0.7350     0.5920 hn         1 C2A       0.223467
@<TRIPOS>BOND
     1     1     2 1   
     2     1    10 1   
     3     1    11 1   
     4     1    18 1   
     5     2     3 1   
     6     2    12 1   
     7     2    13 1   
     8     3     4 ar  
     9     3     8 ar  
    10     4     5 ar  
    11     4    14 1   
    12     5     6 ar  
    13     5    15 1   
    14     6     7 ar  
    15     6    16 1   
    16     7     8 ar  
    17     7     9 1   
    18     8    17 1   
@<TRIPOS>SUBSTRUCTURE
     1 C2A         1 TEMP              0 ****  ****    0 ROOT
