@<TRIPOS>MOLECULE
molecule
   18    18     1     0     0
SMALL
bcc


@<TRIPOS>ATOM
      1 N1           0.0000     0.0000     0.0000 nz         1 C2B      -0.810600
      2 CB           1.4690     0.0000     0.0000 c3         1 C2B       0.160100
      3 CG           1.9710     0.0000     1.4210 ca         1 C2B      -0.204300
      4 CD1          2.2000    -1.1970     2.0730 ca         1 C2B      -0.090500
      5 CE1          2.6610    -1.1980     3.3770 ca         1 C2B      -0.109000
      6 CZ           2.8910     0.0000     4.0280 ca         1 C2B       0.070400
      7 CE2          2.6610     1.1980     3.3760 ca         1 C2B      -0.109000
      8 CD2          2.2060     1.1970     2.0710 ca         1 C2B      -0.090500
      9 Cl           3.4680     0.0010     5.6650 cl         1 C2B      -0.039400
     10 HN11        -0.3340    -0.8240     0.4590 hn         1 C2B       0.455467
     11 HN12        -0.3340     0.8100     0.4840 hn         1 C2B       0.455467
     12 HB1          1.8310    -0.8850    -0.5100 hx         1 C2B       0.114200
     13 HB2          1.8310     0.8850    -0.5100 hx         1 C2B       0.114200
     14 HD1          2.0200    -2.1350     1.5620 ha         1 C2B       0.142000
     15 HE1          2.8410    -2.1360     3.8870 ha         1 C2B       0.173000
     16 HE2          2.8440     2.1360     3.8850 ha         1 C2B       0.173000
     17 HD2          2.0260     2.1350     1.5600 ha         1 C2B       0.142000
     18 H13         -0.3340    -0.0340    -0.9430 hn         1 C2B       0.455467
@<TRIPOS>BOND
     1     1     2 1
     2     1    10 1
     3     1    11 1
     4     2     3 1
     5     2    12 1
     6     2    13 1
     7     3     4 ar
     8     3     8 ar
     9     4     5 ar
    10     4    14 1
    11     5     6 ar
    12     5    15 1
    13     6     7 ar
    14     6     9 1
    15     7     8 ar
    16     7    16 1
    17     8    17 1
    18    18     1 1
@<TRIPOS>SUBSTRUCTURE
     1 C2B         1 TEMP              0 ****  ****    0 ROOT
