@<TRIPOS>MOLECULE
molecule
   62    65     1     0     0
SMALL
bcc


@<TRIPOS>ATOM
      1 O1           0.0000     0.0000     0.0000 oh         1 C2D      -0.616800
      2 Cl2         -3.4820     2.9280    -6.1520 cl         1 C2D      -0.099400
      3 Cl3          3.6410    -3.0620     0.0010 cl         1 C2D      -0.192400
      4 C4          -2.1680     2.0650    -8.3430 ca         1 C2D      -0.116000
      5 C5          -1.0670     1.5440    -9.0250 ca         1 C2D      -0.088000
      6 C6          -2.1140     2.2820    -6.9730 ca         1 C2D       0.019400
      7 C7           0.1020     1.2420    -8.3000 ca         1 C2D      -0.056100
      8 C8          -0.9520     1.9820    -6.2570 ca         1 C2D      -0.077000
      9 C9           0.1810     1.4520    -6.9200 ca         1 C2D      -0.045800
     10 S10          1.5740     0.5960    -8.9220 ss         1 C2D      -0.008500
     11 C11          2.3100     0.5930    -7.3850 cc         1 C2D      -0.125400
     12 C12          1.4620     1.0690    -6.4250 cd         1 C2D      -0.086400
     13 C13          1.8580     1.1740    -4.9810 c3         1 C2D       0.226000
     14 N14          1.5420    -0.0460    -4.2370 n7         1 C2D      -0.817200
     15 C15          1.9550     0.0490    -2.8630 c3         1 C2D       0.161800
     16 C16          1.6510    -1.2220    -2.0880 c3         1 C2D       0.170800
     17 C17          1.9710    -2.3990     0.0170 c3         1 C2D       0.288900
     18 N18          2.0500    -1.1220    -0.6880 n3         1 C2D      -0.730600
     19 C19          1.4850    -2.2970     1.4640 c3         1 C2D       0.120800
     20 C20          1.4180     0.0000     0.0000 c3         1 C2D       0.308000
     21 N21          1.9760    -1.0930     2.1370 n2         1 C2D      -0.657900
     22 C22          1.9240     0.0000     1.4400 c2         1 C2D       0.607200
     23 N23          2.3110     1.2150     1.9500 nu         1 C2D      -0.874200
     24 C24          2.8010     1.3130     3.2920 c3         1 C2D       0.232800
     25 C25          3.1580     2.7440     3.6770 c3         1 C2D      -0.096400
     26 C26          2.3780     5.1180     3.9860 c3         1 C2D      -0.071400
     27 C27          1.9600     3.6900     3.6080 c3         1 C2D       0.173500
     28 C28          1.1790     6.0600     4.0000 c3         1 C2D      -0.078400
     29 N29          0.9090     3.2010     4.5080 n7         1 C2D      -0.820200
     30 C30          0.0630     5.4940     4.8710 c3         1 C2D      -0.078400
     31 C31         -0.2750     4.0590     4.4730 c3         1 C2D       0.164800
     32 H1          -0.3140     0.8890     0.0030 ho         1 C2D       0.418000
     33 H5          -1.1120     1.3750   -10.0940 ha         1 C2D       0.144000
     34 H8          -0.9180     2.1590    -5.1890 ha         1 C2D       0.149000
     35 H11          3.3210     0.2560    -7.1930 h4         1 C2D       0.173000
     36 H131         2.9240     1.3560    -4.9200 h1         1 C2D       0.038200
     37 H132         1.3320     2.0070    -4.5310 h1         1 C2D       0.038200
     38 H14          1.9940    -0.8270    -4.6680 hn         1 C2D       0.360800
     39 H151         1.4370     0.8780    -2.3960 h1         1 C2D       0.031700
     40 H152         3.0220     0.2360    -2.8290 h1         1 C2D       0.031700
     41 H161         0.5860    -1.4170    -2.1360 h1         1 C2D       0.054700
     42 H162         2.1810    -2.0480    -2.5460 h1         1 C2D       0.054700
     43 H117         1.3140    -3.0640    -0.5300 h2         1 C2D       0.068700
     44 H19          0.4020    -2.2820     1.4680 h1         1 C2D       0.073700
     45 H191         1.8300    -3.1670     2.0100 h1         1 C2D       0.073700
     46 H220         1.7570     0.9140    -0.4730 h2         1 C2D       0.047700
     47 H23          2.2610     2.0340     1.3770 hn         1 C2D       0.434800
     48 H241         3.6840     0.6930     3.3890 h1         1 C2D       0.054700
     49 H242         2.0400     0.9470     3.9710 h1         1 C2D       0.054700
     50 H251         3.9270     3.1050     3.0040 hc         1 C2D       0.058200
     51 H252         3.5480     2.7470     4.6870 hc         1 C2D       0.058200
     52 H26          3.1020     5.4770     3.2650 hc         1 C2D       0.047700
     53 H261         2.8290     5.1040     4.9710 hc         1 C2D       0.047700
     54 H227         1.5750     3.6990     2.5960 h1         1 C2D       0.004700
     55 H28          0.8130     6.1850     2.9890 hc         1 C2D       0.039700
     56 H281         1.4860     7.0210     4.3960 hc         1 C2D       0.039700
     57 H30         -0.8210     6.1100     4.7580 hc         1 C2D       0.047700
     58 H301         0.3810     5.5080     5.9070 hc         1 C2D       0.047700
     59 H31         -1.0150     3.6680     5.1620 h1         1 C2D       0.028200
     60 H311        -0.6830     4.0580     3.4700 h1         1 C2D       0.028200
     61 HN1          0.6530     2.2690     4.2470 hn         1 C2D       0.363800
     62 H4          -3.0740     2.3020    -8.8880 ha         1 C2D       0.146000
@<TRIPOS>BOND
     1     1    20 1
     2     1    32 1
     3     2     6 1
     4     3    17 1
     5     4     5 ar
     6     4     6 ar
     7     4    62 1
     8     5     7 ar
     9     5    33 1
    10     6     8 ar
    11     7     9 ar
    12     7    10 1
    13     8     9 ar
    14     8    34 1
    15     9    12 1
    16    10    11 1
    17    11    12 2
    18    11    35 1
    19    12    13 1
    20    13    14 1
    21    13    36 1
    22    13    37 1
    23    14    15 1
    24    14    38 1
    25    15    16 1
    26    15    39 1
    27    15    40 1
    28    16    18 1
    29    16    41 1
    30    16    42 1
    31    17    18 1
    32    17    19 1
    33    17    43 1
    34    18    20 1
    35    19    21 1
    36    19    44 1
    37    19    45 1
    38    20    22 1
    39    20    46 1
    40    21    22 2
    41    22    23 1
    42    23    24 1
    43    23    47 1
    44    24    25 1
    45    24    48 1
    46    24    49 1
    47    25    27 1
    48    25    50 1
    49    25    51 1
    50    26    27 1
    51    26    28 1
    52    26    52 1
    53    26    53 1
    54    27    29 1
    55    27    54 1
    56    28    30 1
    57    28    55 1
    58    28    56 1
    59    29    31 1
    60    30    31 1
    61    30    57 1
    62    30    58 1
    63    31    59 1
    64    31    60 1
    65    61    29 1
@<TRIPOS>SUBSTRUCTURE
     1 C2D         1 TEMP              0 ****  ****    0 ROOT
