@<TRIPOS>MOLECULE
C2F
   57    56     1     0     0
SMALL
bcc


@<TRIPOS>ATOM
      1 N1          0.4910    0.3960    0.4080 nc        1 C2F     -0.721000
      2 C2          0.6700   -0.7470    1.0470 cd        1 C2F      0.643800
      3 NA2         1.6300   -1.6940    0.5670 nh        1 C2F     -0.873800
      4 N3         -0.0860   -1.1530    2.1850 n         1 C2F     -0.519400
      5 C4         -1.2760   -0.4960    2.4940 c         1 C2F      0.588200
      6 O4         -1.9430   -0.8760    3.4700 o         1 C2F     -0.610500
      7 C4A        -1.6940    0.6270    1.5700 cc        1 C2F      0.299000
      8 N5         -2.8960    0.9940    1.3190 n2        1 C2F     -0.528900
      9 C6         -1.4330    3.8020    2.5900 c3        1 C2F     -0.152700
     10 C7         -1.2450    3.5960    1.0870 c3        1 C2F      0.118800
     11 N8         -0.3380    2.5620    0.6850 n2        1 C2F     -0.545900
     12 C8A        -0.5120    1.2960    0.8800 cc        1 C2F      0.589000
     13 C9         -0.1430    4.2100    3.2370 c2        1 C2F      0.464200
     14 N10         0.6170    3.3830    3.8640 n2        1 C2F     -0.637900
     15 C11        -4.0610    0.4290    1.9110 c3        1 C2F      0.080100
     16 C12         1.5400    6.3780    5.8250 ce        1 C2F     -0.158300
     17 C13         1.6440    5.1620    6.6550 ce        1 C2F     -0.105000
     18 C14         1.6900    3.9810    6.0030 c2        1 C2F     -0.172200
     19 C15         1.8390    3.8430    4.4820 c3        1 C2F      0.194900
     20 C16         2.5180    5.1160    3.9660 c2        1 C2F     -0.238300
     21 C17         2.1220    6.1730    4.6470 c1        1 C2F      0.029200
     22 O           0.7470    7.8880    7.4810 o         1 C2F     -0.664100
     23 N          -0.0590    8.1540    5.3460 n         1 C2F     -0.609000
     24 CA         -5.7500    8.5880    1.6970 ce        1 C2F     -0.330200
     25 CB         -4.9170    8.3770    2.7260 c2        1 C2F     -0.026200
     26 CG         -4.0350    7.2020    2.8490 c3        1 C2F     -0.192200
     27 CD         -2.6980    7.5690    3.5160 c         1 C2F      0.917600
     28 OE1        -1.6910    6.8490    3.2450 o         1 C2F     -0.848300
     29 OE2        -2.6540    8.5480    4.3120 o         1 C2F     -0.848300
     30 CT         -6.6240    9.7520    1.5710 c         1 C2F      0.641300
     31 O1         -6.3180   10.9310    2.2020 oh        1 C2F     -0.602100
     32 O2         -7.6680    9.8280    0.9120 o         1 C2F     -0.536000
     33 HN21        2.2480   -2.0060    1.2880 hn        1 C2F      0.398800
     34 HN22        2.1340   -1.3530   -0.2280 hn        1 C2F      0.398800
     35 HN3         0.1880   -1.9390    2.7270 hn        1 C2F      0.330500
     36 H6         -1.8700    2.8860    3.0640 hc        1 C2F      0.080700
     37 H71        -2.1490    4.6630    2.7370 hc        1 C2F      0.080700
     38 H72        -2.2610    3.4600    0.6160 h1        1 C2F      0.069700
     39 HN8        -0.8000    4.5430    0.6570 h1        1 C2F      0.069700
     40 H91         0.9800    7.3200    2.5080 ha        1 C2F      0.002000
     41 H92         0.3500    7.4890    2.3190 ha        1 C2F      0.002000
     42 HN1         0.0630    5.3050    3.1230 h4        1 C2F      0.030800
     43 H111       -4.4080    1.1210    2.7280 h1        1 C2F      0.063700
     44 H112       -4.8510    0.3900    1.1140 h1        1 C2F      0.063700
     45 H113       -3.9290   -0.5960    2.3530 h1        1 C2F      0.063700
     46 H13         1.5890    3.0250    6.5340 ha        1 C2F      0.133000
     47 H14         1.5610    5.2680    7.7440 ha        1 C2F      0.153000
     48 H16         2.5980    3.0200    4.2980 h1        1 C2F      0.072700
     49 H17         3.3100    5.0440    3.2200 ha        1 C2F      0.149000
     50 HN         -0.2510    7.7030    4.4690 hn        1 C2F      0.339000
     51 HA         -5.4750   10.8470    2.6680 ho        1 C2F      0.433000
     52 HB1        -5.8480    7.8670    0.8700 ha        1 C2F      0.149000
     53 HB2        -4.8240    9.0900    3.5700 ha        1 C2F      0.150000
     54 HG1        -4.5300    6.4400    3.5100 hc        1 C2F      0.057200
     55 HG2        -3.8360    6.7210    1.8590 hc        1 C2F      0.057200
     56 H2         -0.7810    8.7700    5.6540 hn        1 C2F      0.339000
     57 C           0.7000    7.5140    6.2830 c         1 C2F      0.666300
@<TRIPOS>BOND
     1    1    2 2   
     2    1   12 1   
     3    2    3 1   
     4    2    4 1   
     5    3   33 1   
     6    3   34 1   
     7    4    5 1   
     8    4   35 1   
     9    5    6 2   
    10    5    7 1   
    11    7    8 2   
    12    7   12 1   
    13    8   15 1   
    14    9   10 1   
    15    9   13 1   
    16    9   36 1   
    17    9   37 1   
    18   10   11 1   
    19   10   38 1   
    20   10   39 1   
    21   11   12 2   
    22   13   14 2   
    23   13   42 1   
    24   14   19 1   
    25   15   43 1   
    26   15   44 1   
    27   15   45 1   
    28   16   17 1   
    29   16   21 2   
    30   16   57 1   
    31   17   18 2   
    32   17   47 1   
    33   18   19 1   
    34   18   46 1   
    35   19   20 1   
    36   19   48 1   
    37   20   21 2   
    38   20   49 1   
    39   22   57 2   
    40   23   50 1   
    41   23   56 1   
    42   23   57 1   
    43   24   25 2   
    44   24   30 1   
    45   24   52 1   
    46   25   26 1   
    47   25   53 1   
    48   26   27 1   
    49   26   54 1   
    50   26   55 1   
    51   27   28 1   
    52   27   29 1   
    53   30   31 1   
    54   30   32 2   
    55   31   51 1   
    56   40   41 1   
@<TRIPOS>SUBSTRUCTURE
     1 C2F         1 TEMP              0 ****  ****    0 ROOT
