@<TRIPOS>MOLECULE
C2G
   49    47     1     0     0
SMALL
bcc


@<TRIPOS>ATOM
      1 N1          0.6170    0.2170    1.5630 n         1 C2G     -0.261000
      2 C2          0.6500   -0.9900    2.3870 c2        1 C2G      0.317000
      3 N3          0.8840   -2.2270    1.8110 n2        1 C2G     -0.387000
      4 C4          1.1100   -2.2960    0.4700 c2        1 C2G      0.189000
      5 C5          1.1660   -1.0590   -0.4170 c3        1 C2G     -0.248000
      6 C6          0.8550    0.2200    0.2670 c1        1 C2G     -0.123000
      7 O2          0.4540   -0.8140    3.6120 o         1 C2G     -0.400000
      8 N4          1.2890   -3.4840   -0.1330 n3        1 C2G     -0.296000
      9 C1'        -0.2690    1.3650   -2.7750 c2        1 C2G     -0.035000
     10 C2'        -0.6760    2.2790   -3.6760 c2        1 C2G     -0.098000
     11 O2'        -0.6630    3.6130   -3.2850 oh        1 C2G     -0.280000
     12 C3'        -1.0970    2.0110   -5.0880 c3        1 C2G      0.021000
     13 C4'        -0.9210   -0.5540   -3.9380 c1        1 C2G     -0.100000
     14 O4'        -0.1130    0.0060   -3.0430 os        1 C2G     -0.107000
     15 O3'        -2.4460    1.6030   -5.1700 oh        1 C2G     -0.363000
     16 C5'        -0.6960   -2.0140   -4.0930 c3        1 C2G     -0.036000
     17 O5'         0.2280   -2.5600   -3.2090 os        1 C2G     -0.765000
     18 PA          1.4220   -3.5030   -3.8880 p5        1 C2G      2.073000
     19 O1A         2.3440   -3.6970   -2.7420 o         1 C2G     -0.871500
     20 O2A         1.7740   -2.8420   -5.1560 o         1 C2G     -0.871500
     21 O3A         0.5830   -4.8500   -4.1440 os        1 C2G     -1.297000
     22 PB         -0.3190   -6.1970   -4.3940 p5        1 C2G      2.082000
     23 O1B         0.5140   -7.1700   -5.1430 o         1 C2G     -0.890000
     24 O2B        -1.6960   -5.8310   -4.7560 o         1 C2G     -0.890000
     25 O3B        -0.2650   -6.7460   -2.8560 oh        1 C2G     -0.826000
     26 C1G         3.1190  -10.2990   -7.9030 c3        1 C2G      0.029000
     27 C2G         2.5050   -9.2380   -7.0420 c2        1 C2G     -0.014000
     28 O2G         1.1930   -9.5310   -6.7550 oh        1 C2G     -0.334000
     29 C3G         3.1370   -8.1330   -6.6280 c2        1 C2G     -0.308000
     30 HC5         2.1870   -0.9700   -0.8860 hc        1 C2G      0.186500
     31 HC6         0.4500   -1.1820   -1.2880 hc        1 C2G      0.186500
     32 HN41        1.5090   -3.5250   -1.1350 hn        1 C2G      0.278000
     33 HN42        1.2540   -4.3320    0.3800 hn        1 C2G      0.278000
     34 HC1         0.4040    1.0680    2.0340 hn        1 C2G      0.234000
     35 HC2         0.0860    1.5600   -1.7440 h4        1 C2G      0.203000
     36 HO2        -1.5210    3.9690   -3.5580 ho        1 C2G      0.203000
     37 HC3        -1.0400    2.9560   -5.6950 h1        1 C2G      0.091500
     38 HC4        -0.4220    1.2280   -5.5330 h1        1 C2G      0.091500
     39 HO3        -2.4770    0.6950   -4.8140 ho        1 C2G      0.246000
     40 HC51       -1.7080   -2.4980   -3.9340 h1        1 C2G      0.133000
     41 HC52       -0.3710   -2.1850   -5.1670 h1        1 C2G      0.133000
     42 H1G         1.8070  -11.5630   -7.2300 ho        1 C2G      0.225000
     43 H2G         4.2360  -10.3010   -7.7950 h1        1 C2G      0.070000
     44 HOG         0.8250   -8.8010   -6.2050 ho        1 C2G      0.312000
     45 H3G1        0.6160   -6.9660   -2.5840 ho        1 C2G      0.220000
     46 H3G2        2.6080   -7.3740   -6.0230 ha        1 C2G      0.146000
     47 H1G1        4.1850   -7.9390   -6.8730 ha        1 C2G      0.146000
     48 O1G         2.7080  -11.6150   -7.5760 oh        1 C2G     -0.359000
     49 H1G2        2.8500  -10.1040   -8.9790 h1        1 C2G      0.070000
@<TRIPOS>BOND
     1    1    2 1
     2    1    6 1
     3    1   34 1
     4    2    3 1
     5    2    7 1
     6    3    4 1
     7    4    5 1
     8    4    8 1
     9    5    6 1
    10    5   30 1
    11    5   31 1
    12    8   32 1
    13    8   33 1
    14    9   10 1
    15    9   14 1
    16    9   35 1
    17   10   11 1
    18   10   12 1
    19   11   36 1
    20   12   15 1
    21   12   37 1
    22   12   38 1
    23   13   14 1
    24   13   16 1
    25   15   39 1
    26   16   17 1
    27   16   40 1
    28   16   41 1
    29   17   18 1
    30   18   19 1
    31   18   20 1
    32   18   21 1
    33   21   22 1
    34   22   23 1
    35   22   24 1
    36   22   25 1
    37   25   45 1
    38   26   27 1
    39   26   43 1
    40   26   48 1
    41   26   49 1
    42   27   28 1
    43   27   29 1
    44   28   44 1
    45   29   46 1
    46   29   47 1
    47   42   48 1
@<TRIPOS>SUBSTRUCTURE
     1 C2G         1 TEMP              0 ****  ****    0 ROOT
