@<TRIPOS>MOLECULE
molecule
    4     3     1     0     0
SMALL
bcc


@<TRIPOS>ATOM
      1 C            0.0000     0.0000     0.0000 c1         1 C2H      -0.161500
      2 C1           1.1740     0.0000     0.0000 c1         1 C2H      -0.161500
      3 H2          -1.0830     0.0000     0.0190 ha         1 C2H       0.161500
      4 H4           2.2570    -0.0180    -0.0060 ha         1 C2H       0.161500
@<TRIPOS>BOND
     1     2     1 3
     2     1     3 1
     3     2     4 1
@<TRIPOS>SUBSTRUCTURE
     1 C2H         1 TEMP              0 ****  ****    0 ROOT
