@<TRIPOS>MOLECULE
C2J
   37    40     1     0     0
SMALL
bcc


@<TRIPOS>ATOM
      1 C1           0.0000     0.0000     0.0000 ca         1 C2J       0.123100
      2 C2           1.3890     0.0000     0.0000 ca         1 C2J      -0.137000
      3 C3           2.0800     0.0000     1.1930 ca         1 C2J      -0.079500
      4 C4           1.3820    -0.0010     2.4010 cp         1 C2J      -0.049000
      5 C5          -0.0120    -0.0010     2.3970 ca         1 C2J      -0.079500
      6 C6          -0.6960    -0.0010     1.2010 ca         1 C2J      -0.137000
      7 C7           2.1230    -0.0020     3.6860 cp         1 C2J       0.000000
      8 C8           3.5300    -0.0020     3.6710 ca         1 C2J      -0.141000
      9 C11          4.0080    -0.0040     7.3900 cc         1 C2J      -0.257500
     10 O1          -0.6770     0.0050    -1.1770 oh         1 C2J      -0.501100
     11 C9           4.2510    -0.0030     4.8180 ca         1 C2J      -0.025000
     12 C10          3.5910    -0.0030     6.0630 ca         1 C2J      -0.231000
     13 N1           5.3250    -0.0050     7.8340 ns         1 C2J       0.021900
     14 C12          5.5910    -0.0050     9.1550 c          1 C2J       0.601100
     15 O2           4.6800    -0.0080     9.9570 o          1 C2J      -0.662100
     16 C13          7.0190    -0.0050     9.6370 cx         1 C2J      -0.224700
     17 C14          7.5310    -1.2700    10.3310 cx         1 C2J      -0.042400
     18 C15          7.2540    -0.0080    11.1490 cx         1 C2J      -0.042400
     19 N2           2.9110    -0.0050     8.1640 na         1 C2J       0.541800
     20 N3           1.7630    -0.0050     7.3650 nc         1 C2J      -0.444400
     21 C16          2.1200    -0.0040     6.0930 ca         1 C2J       0.019000
     22 C17          1.4180     0.0030     4.8700 ca         1 C2J      -0.087000
     23 H1           1.9300     0.0010    -0.9390 ha         1 C2J       0.113000
     24 H2           3.1630     0.0000     1.1930 ha         1 C2J       0.114500
     25 H3          -0.5570    -0.0020     3.3340 ha         1 C2J       0.114500
     26 H4          -1.7790    -0.0010     1.1980 ha         1 C2J       0.113000
     27 H5           4.0480    -0.0020     2.7200 ha         1 C2J       0.111000
     28 H6          -0.8360    -0.8820    -1.4530 ho         1 C2J       0.402000
     29 H7           5.3330    -0.0030     4.7780 ha         1 C2J       0.088000
     30 H8           6.0770     0.0080     7.1730 hn         1 C2J       0.181500
     31 H9           7.7650     0.5310     9.0640 hc         1 C2J       0.067700
     32 H10          8.5770    -1.5020    10.1680 hc         1 C2J       0.054200
     33 H11          6.8060    -2.0680    10.4420 hc         1 C2J       0.054200
     34 H12          6.3600    -0.0340    11.7600 hc         1 C2J       0.054200
     35 H13          8.1300     0.5320    11.4870 hc         1 C2J       0.054200
     36 H14          2.9140    -0.0060     9.1650 hn         1 C2J       0.191700
     37 H15          0.3460     0.1610     4.8620 ha         1 C2J       0.123000
@<TRIPOS>BOND
     1     1     2 ar  
     2     1     6 ar  
     3     1    10 1   
     4     2     3 ar  
     5     2    23 1   
     6     3     4 ar  
     7     3    24 1   
     8     4     5 ar  
     9     4     7 1   
    10     5     6 ar  
    11     5    25 1   
    12     6    26 1   
    13     7     8 ar  
    14     7    22 ar  
    15     8    11 ar  
    16     8    27 1   
    17     9    12 2   
    18     9    13 1   
    19     9    19 1   
    20    10    28 1   
    21    11    12 ar  
    22    11    29 1   
    23    12    21 ar  
    24    13    14 1   
    25    13    30 1   
    26    14    15 2   
    27    14    16 1   
    28    16    17 1   
    29    16    18 1   
    30    16    31 1   
    31    17    18 1   
    32    17    32 1   
    33    17    33 1   
    34    18    34 1   
    35    18    35 1   
    36    19    20 1   
    37    19    36 1   
    38    20    21 2   
    39    21    22 ar  
    40    22    37 1   
@<TRIPOS>SUBSTRUCTURE
     1 C2J         1 TEMP              0 ****  ****    0 ROOT
