@<TRIPOS>MOLECULE
molecule
   37    40     1     0     0
SMALL
bcc


@<TRIPOS>ATOM
      1 C1           0.0000     0.0000     0.0000 ca         1 C2J       0.105100
      2 C2           1.3890     0.0000     0.0000 ca         1 C2J      -0.152000
      3 C3           2.0800     0.0000     1.1930 ca         1 C2J      -0.105500
      4 C4           1.3820    -0.0010     2.4010 cp         1 C2J      -0.045000
      5 C5          -0.0120    -0.0010     2.3970 ca         1 C2J      -0.105500
      6 C6          -0.6960    -0.0010     1.2010 ca         1 C2J      -0.152000
      7 C7           2.1230    -0.0020     3.6860 cp         1 C2J      -0.002000
      8 C8           3.5300    -0.0020     3.6710 ca         1 C2J      -0.161000
      9 C11          4.0080    -0.0040     7.3900 cc         1 C2J       0.080500
     10 O1          -0.6770     0.0050    -1.1770 oh         1 C2J      -0.523100
     11 C9           4.2510    -0.0030     4.8180 ca         1 C2J      -0.054000
     12 C10          3.5910    -0.0030     6.0630 ca         1 C2J      -0.230000
     13 N1           5.3250    -0.0050     7.8340 ns         1 C2J      -0.455100
     14 C12          5.5910    -0.0050     9.1550 c          1 C2J       0.702100
     15 O2           4.6800    -0.0080     9.9570 o          1 C2J      -0.614100
     16 C13          7.0190    -0.0050     9.6370 cx         1 C2J      -0.244700
     17 C14          7.5310    -1.2700    10.3310 cx         1 C2J      -0.101900
     18 C15          7.2540    -0.0080    11.1490 cx         1 C2J      -0.101900
     19 N2           2.9110    -0.0050     8.1640 na         1 C2J       0.027800
     20 N3           1.7630    -0.0050     7.3650 nc         1 C2J      -0.276400
     21 C16          2.1200    -0.0040     6.0930 ca         1 C2J      -0.014000
     22 C17          1.4180     0.0030     4.8700 ca         1 C2J      -0.106000
     23 H1           1.9300     0.0010    -0.9390 ha         1 C2J       0.140500
     24 H2           3.1630     0.0000     1.1930 ha         1 C2J       0.138500
     25 H3          -0.5570    -0.0020     3.3340 ha         1 C2J       0.138500
     26 H4          -1.7790    -0.0010     1.1980 ha         1 C2J       0.140500
     27 H5           4.0480    -0.0020     2.7200 ha         1 C2J       0.130000
     28 H6          -0.8360    -0.8820    -1.4530 ho         1 C2J       0.419000
     29 H7           5.3330    -0.0030     4.7780 ha         1 C2J       0.115000
     30 H8           6.0770     0.0080     7.1730 hn         1 C2J       0.348500
     31 H9           7.7650     0.5310     9.0640 hc         1 C2J       0.094700
     32 H10          8.5770    -1.5020    10.1680 hc         1 C2J       0.088200
     33 H11          6.8060    -2.0680    10.4420 hc         1 C2J       0.088200
     34 H12          6.3600    -0.0340    11.7600 hc         1 C2J       0.088200
     35 H13          8.1300     0.5320    11.4870 hc         1 C2J       0.088200
     36 H14          2.9140    -0.0060     9.1650 hn         1 C2J       0.365700
     37 H15          0.3460     0.1610     4.8620 ha         1 C2J       0.145000
@<TRIPOS>BOND
     1    10     1 1
     2     2     1 ar
     3     2     3 ar
     4     1     6 ar
     5     3     4 ar
     6     6     5 ar
     7     4     5 ar
     8     4     7 1
     9    22     7 ar
    10    22    21 ar
    11    20    21 2
    12    20    19 1
    13     7     8 ar
    14    21    12 ar
    15    19     9 1
    16     8    11 ar
    17    12     9 2
    18    12    11 ar
    19     9    13 1
    20    13    14 1
    21    15    14 2
    22    14    16 1
    23    16    18 1
    24    16    17 1
    25    18    17 1
    26     2    23 1
    27     3    24 1
    28     5    25 1
    29     6    26 1
    30     8    27 1
    31    10    28 1
    32    11    29 1
    33    13    30 1
    34    16    31 1
    35    17    32 1
    36    17    33 1
    37    18    34 1
    38    18    35 1
    39    19    36 1
    40    22    37 1
@<TRIPOS>SUBSTRUCTURE
     1 C2J         1 TEMP              0 ****  ****    0 ROOT
