@<TRIPOS>MOLECULE
molecule
   27    28     1     0     0
SMALL
bcc


@<TRIPOS>ATOM
      1 N1           0.0000     0.0000     0.0000 nb         1 C2M      -0.824000
      2 C2           1.3260     0.0000     0.0000 ca         1 C2M       0.975900
      3 N2           2.0260     0.0000     1.1240 nb         1 C2M      -0.850000
      4 C3           1.4180    -0.0010     2.3040 ca         1 C2M       0.778200
      5 C4           0.0100     0.0050     2.3430 cp         1 C2M      -0.405600
      6 C5          -0.6830     0.0000     1.1340 ca         1 C2M       0.540600
      7 C6          -0.7160     0.0050     3.6360 cp         1 C2M       0.001000
      8 C7          -1.5110    -1.0840     3.9910 ca         1 C2M      -0.114000
      9 C8          -2.1800    -1.0810     5.1990 ca         1 C2M       0.029400
     10 C9          -2.0700     0.0050     6.0520 ca         1 C2M       0.025400
     11 C10         -1.2860     1.0900     5.7000 ca         1 C2M      -0.117000
     12 C11         -0.6090     1.0950     4.4970 ca         1 C2M      -0.107000
     13 N3           1.9960     0.0010    -1.2100 nv         1 C2M      -0.989500
     14 N4           2.1520    -0.0000     3.4760 nv         1 C2M      -1.036500
     15 C12         -2.1890    -0.0000     1.1180 c3         1 C2M      -0.146400
     16 Cl1         -2.9210     0.0060     7.5660 cl         1 C2M      -0.089400
     17 Cl2         -3.1670    -2.4380     5.6470 cl         1 C2M      -0.088400
     18 H7          -1.5970    -1.9330     3.3240 ha         1 C2M       0.154000
     19 H10         -1.2040     1.9370     6.3700 ha         1 C2M       0.150000
     20 H11          0.0050     1.9450     4.2240 ha         1 C2M       0.147000
     21 HN31         2.9800     0.1810    -1.2360 hn         1 C2M       0.450800
     22 HN32         1.4970    -0.1760    -2.0590 hn         1 C2M       0.450800
     23 HN41         1.9480    -0.6670     4.1940 hn         1 C2M       0.444300
     24 HN42         2.9200     0.6330     3.5850 hn         1 C2M       0.444300
     25 H121        -2.5570     0.8030     1.7450 hc         1 C2M       0.059033
     26 H122        -2.5390     0.1440     0.1030 hc         1 C2M       0.059033
     27 H123        -2.5540    -0.9480     1.4950 hc         1 C2M       0.059033
@<TRIPOS>BOND
     1     1     2 ar
     2     1     6 ar
     3     2     3 ar
     4     2    13 1
     5     3     4 ar
     6     4     5 ar
     7     4    14 1
     8     5     6 ar
     9     5     7 1
    10     6    15 1
    11     7     8 ar
    12     7    12 ar
    13     8     9 ar
    14     8    18 1
    15     9    10 ar
    16     9    17 1
    17    10    11 ar
    18    10    16 1
    19    11    12 ar
    20    11    19 1
    21    12    20 1
    22    13    21 1
    23    13    22 1
    24    14    23 1
    25    14    24 1
    26    15    25 1
    27    15    26 1
    28    15    27 1
@<TRIPOS>SUBSTRUCTURE
     1 C2M         1 TEMP              0 ****  ****    0 ROOT
