@<TRIPOS>MOLECULE
molecule
   34    35     1     0     0
SMALL
bcc


@<TRIPOS>ATOM
      1 N1           0.0000     0.0000     0.0000 n          1 C2P      -0.281000
      2 C2           1.3450     0.0000     0.0000 c          1 C2P       0.858900
      3 N3           2.0330     0.0000     1.1400 nc         1 C2P      -0.674100
      4 C4           1.4060    -0.0010     2.3100 cd         1 C2P       0.481500
      5 C5          -0.0030    -0.0070     2.3440 cd         1 C2P      -0.417600
      6 C6          -0.6870    -0.0010     1.1760 cc         1 C2P       0.127600
      7 O2           1.9450     0.0020    -1.0620 o          1 C2P      -0.579500
      8 N4           2.1270    -0.0030     3.4810 nz         1 C2P      -0.714600
      9 C1'         -0.7290     0.0010    -1.2700 c3         1 C2P       0.264500
     10 C2'         -0.3390     1.2350    -2.1120 c3         1 C2P       0.145100
     11 O2'         -1.3120     2.2720    -1.9710 os         1 C2P      -0.494200
     12 C3'         -0.3200     0.7060    -3.5650 c3         1 C2P       0.121100
     13 C4'         -0.7020    -0.7840    -3.4270 c3         1 C2P       0.117100
     14 O4'         -0.3390    -1.1340    -2.0740 os         1 C2P      -0.416600
     15 O3'         -1.2810     1.3970    -4.3640 oh         1 C2P      -0.559800
     16 C5'          0.0850    -1.6340    -4.4260 c3         1 C2P       0.143400
     17 O5'         -0.2300    -3.0130    -4.2320 oh         1 C2P      -0.608800
     18 P           -0.5260     3.5820    -1.4620 p5         1 C2P       1.143900
     19 O1P         -1.5670     4.7960    -1.2810 o          1 C2P      -0.825833
     20 O2P          0.1820     3.2670    -0.0520 o          1 C2P      -0.825833
     21 O3P          0.5020     3.9580    -2.4580 o          1 C2P      -0.825833
     22 H5          -0.5300    -0.0080     3.2910 ha         1 C2P       0.131000
     23 H6          -1.7710    -0.0030     1.1770 h4         1 C2P       0.178000
     24 HN41         3.1060     0.0050     3.2710 hn         1 C2P       0.446800
     25 HN42         1.9070    -0.8250     4.0080 hn         1 C2P       0.446800
     26 H1'         -1.7980    -0.0120    -1.0970 h2         1 C2P       0.084700
     27 H2'          0.6450     1.5890    -1.8280 h1         1 C2P       0.119700
     28 H3'          0.6730     0.8030    -3.9880 h1         1 C2P       0.057700
     29 H4'         -1.7670    -0.9120    -3.5730 h1         1 C2P       0.065700
     30 HO3'        -0.8740     1.6850    -5.1650 ho         1 C2P       0.394000
     31 H5'1        -0.1800    -1.3420    -5.4350 h1         1 C2P       0.030200
     32 H5'2         1.1470    -1.4800    -4.2730 h1         1 C2P       0.030200
     33 HO5'         0.1900    -3.5290    -4.9000 ho         1 C2P       0.387000
     34 H43          1.8910     0.8070     4.0200 hn         1 C2P       0.446800
@<TRIPOS>BOND
     1     1     2 1
     2     1     6 1
     3     1     9 1
     4     2     3 1
     5     2     7 2
     6     3     4 2
     7     4     5 1
     8     4     8 1
     9     5     6 2
    10     5    22 1
    11     6    23 1
    12     8    24 1
    13     8    25 1
    14     9    10 1
    15     9    14 1
    16     9    26 1
    17    10    11 1
    18    10    12 1
    19    10    27 1
    20    11    18 1
    21    12    13 1
    22    12    15 1
    23    12    28 1
    24    13    14 1
    25    13    16 1
    26    13    29 1
    27    15    30 1
    28    16    17 1
    29    16    31 1
    30    16    32 1
    31    17    33 1
    32    18    19 1
    33    18    20 1
    34    18    21 1
    35    34     8 1
@<TRIPOS>SUBSTRUCTURE
     1 C2P         1 TEMP              0 ****  ****    0 ROOT
