@<TRIPOS>MOLECULE
molecule
   50    53     1     0     0
SMALL
bcc


@<TRIPOS>ATOM
      1 C01          0.0000     0.0000     0.0000 c3         1 C2Q      -0.051800
      2 C02          1.5060     0.0000     0.0000 ca         1 C2Q      -0.049300
      3 C03          2.1890     0.0000     1.1780 ca         1 C2Q      -0.134000
      4 C04          3.5840    -0.0000     1.1990 ca         1 C2Q      -0.107000
      5 C05          4.3010    -0.0010     0.0420 ca         1 C2Q      -0.099300
      6 C06          5.8080    -0.0010     0.0870 c3         1 C2Q      -0.001900
      7 C07          6.3170     1.4050    -0.1010 cc         1 C2Q      -0.027200
      8 C08          5.4670     2.4860     0.0200 cd         1 C2Q      -0.200200
      9 C09          5.9620     3.7740    -0.1580 c          1 C2Q       0.687700
     10 O10          5.2010     4.7220    -0.0480 o          1 C2Q      -0.539500
     11 N11          7.2760     4.0050    -0.4530 n          1 C2Q      -0.243000
     12 C12          8.1100     2.9420    -0.5720 cd         1 C2Q       0.244200
     13 S13          9.7480     3.4940    -0.9520 ss         1 C2Q      -0.320700
     14 C14          9.3580     5.2690    -0.9670 c3         1 C2Q       0.067700
     15 C15          7.8660     5.3270    -0.6520 c3         1 C2Q      -0.049300
     16 C16          7.1550     6.0100    -1.7920 c          1 C2Q       0.883600
     17 O17          7.5200     7.2460    -2.1670 o          1 C2Q      -0.782800
     18 O18          6.2550     5.4450    -2.3670 o          1 C2Q      -0.782800
     19 C19          7.6530     1.6450    -0.3960 cc         1 C2Q      -0.251000
     20 N20          8.5420     0.5730    -0.5190 nx         1 C2Q      -0.464200
     21 C21          8.3690    -0.3390     0.6200 c3         1 C2Q       0.085100
     22 C22          8.2680    -0.1490    -1.7690 c3         1 C2Q       0.085100
     23 C23          3.6320    -0.0020    -1.1930 ca         1 C2Q      -0.016000
     24 C24          4.3380    -0.0020    -2.4070 ca         1 C2Q      -0.128000
     25 C25          3.6550    -0.0020    -3.5850 ca         1 C2Q      -0.105000
     26 C26          2.2620    -0.0020    -3.6050 ca         1 C2Q      -0.121000
     27 C27          1.5430    -0.0010    -2.4490 ca         1 C2Q      -0.105000
     28 C28          2.2140    -0.0070    -1.2140 ca         1 C2Q      -0.031000
     29 H013        -0.3610     0.0050     1.0210 hc         1 C2Q       0.049367
     30 H012        -0.3610    -0.8870    -0.5060 hc         1 C2Q       0.049367
     31 H011        -0.3610     0.8820    -0.5150 hc         1 C2Q       0.049367
     32 H031         1.6420     0.0000     2.1130 ha         1 C2Q       0.136000
     33 H041         4.1030    -0.0000     2.1490 ha         1 C2Q       0.126000
     34 H061         6.1410    -0.3800     1.0460 hc         1 C2Q       0.047700
     35 H062         6.1930    -0.6330    -0.7050 hc         1 C2Q       0.047700
     36 H081         4.4490     2.3390     0.3580 ha         1 C2Q       0.190000
     37 H141         9.5400     5.6750    -1.9550 h1         1 C2Q       0.112700
     38 H142         9.9170     5.7730    -0.1880 h1         1 C2Q       0.112700
     39 H151         7.7260     5.9090     0.2520 h1         1 C2Q       0.104700
     40 H212         7.8850     0.1880     1.4340 hx         1 C2Q       0.094033
     41 H211         9.3380    -0.6950     0.9470 hx         1 C2Q       0.094033
     42 H213         7.7570    -1.1810     0.3200 hx         1 C2Q       0.094033
     43 H223         7.6080     0.4440    -2.3910 hx         1 C2Q       0.094033
     44 H222         7.7950    -1.0970    -1.5430 hx         1 C2Q       0.094033
     45 H221         9.1980    -0.3260    -2.2960 hx         1 C2Q       0.094033
     46 H241         5.4220    -0.0020    -2.4060 ha         1 C2Q       0.113000
     47 H251         4.2020    -0.0030    -4.5190 ha         1 C2Q       0.132000
     48 H261         1.7420    -0.0030    -4.5560 ha         1 C2Q       0.135000
     49 H271         0.4610    -0.0010    -2.4800 ha         1 C2Q       0.139000
     50 H201         9.4810     0.9170    -0.5310 hn         1 C2Q       0.448800
@<TRIPOS>BOND
     1    26    25 ar
     2    26    27 ar
     3    25    24 ar
     4    27    28 ar
     5    24    23 ar
     6    28    23 ar
     7    28     2 ar
     8    23     5 ar
     9     1     2 1
    10     2     3 ar
    11     5     6 1
    12     5     4 ar
    13     3     4 ar
    14     6     7 1
    15    22    20 1
    16     7     8 2
    17     7    19 1
    18    18    16 1
    19    20    19 1
    20    20    21 1
    21     8     9 1
    22    19    12 2
    23     9    10 2
    24     9    11 1
    25    12    11 1
    26    12    13 1
    27    16    17 1
    28    16    15 1
    29    11    15 1
    30    13    14 1
    31    15    14 1
    32     1    29 1
    33     1    30 1
    34     1    31 1
    35     3    32 1
    36     4    33 1
    37     6    34 1
    38     6    35 1
    39     8    36 1
    40    14    37 1
    41    14    38 1
    42    15    39 1
    43    21    40 1
    44    21    41 1
    45    21    42 1
    46    22    43 1
    47    22    44 1
    48    22    45 1
    49    24    46 1
    50    25    47 1
    51    26    48 1
    52    27    49 1
    53    20    50 1
@<TRIPOS>SUBSTRUCTURE
     1 C2Q         1 TEMP              0 ****  ****    0 ROOT
