@<TRIPOS>MOLECULE
C2Q
   50    53     1     0     0
SMALL
bcc


@<TRIPOS>ATOM
      1 C01          0.0000     0.0000     0.0000 c3         1 C2Q       0.056200
      2 C02          1.5060     0.0000     0.0000 ca         1 C2Q      -0.051300
      3 C03          2.1890     0.0000     1.1780 ca         1 C2Q      -0.111000
      4 C04          3.5840    -0.0000     1.1990 ca         1 C2Q      -0.078000
      5 C05          4.3010    -0.0010     0.0420 ca         1 C2Q      -0.108300
      6 C06          5.8080    -0.0010     0.0870 c3         1 C2Q       0.054100
      7 C07          6.3170     1.4050    -0.1010 cc         1 C2Q      -0.020200
      8 C08          5.4670     2.4860     0.0200 cd         1 C2Q      -0.189200
      9 C09          5.9620     3.7740    -0.1580 c          1 C2Q       0.581700
     10 O10          5.2010     4.7220    -0.0480 o          1 C2Q      -0.566500
     11 N11          7.2760     4.0050    -0.4530 n          1 C2Q       0.246000
     12 C12          8.1100     2.9420    -0.5720 cd         1 C2Q       0.096200
     13 S13          9.7480     3.4940    -0.9520 ss         1 C2Q      -0.364700
     14 C14          9.3580     5.2690    -0.9670 c3         1 C2Q       0.167700
     15 C15          7.8660     5.3270    -0.6520 c3         1 C2Q      -0.179300
     16 C16          7.1550     6.0100    -1.7920 c          1 C2Q       0.964600
     17 O17          7.5200     7.2460    -2.1670 o          1 C2Q      -0.829300
     18 O18          6.2550     5.4450    -2.3670 o          1 C2Q      -0.829300
     19 C19          7.6530     1.6450    -0.3960 cc         1 C2Q      -0.468000
     20 N20          8.5420     0.5730    -0.5190 nx         1 C2Q       0.313800
     21 C21          8.3690    -0.3390     0.6200 c3         1 C2Q      -0.048900
     22 C22          8.2680    -0.1490    -1.7690 c3         1 C2Q      -0.048900
     23 C23          3.6320    -0.0020    -1.1930 ca         1 C2Q      -0.011000
     24 C24          4.3380    -0.0020    -2.4070 ca         1 C2Q      -0.113000
     25 C25          3.6550    -0.0020    -3.5850 ca         1 C2Q      -0.073000
     26 C26          2.2620    -0.0020    -3.6050 ca         1 C2Q      -0.093000
     27 C27          1.5430    -0.0010    -2.4490 ca         1 C2Q      -0.080000
     28 C28          2.2140    -0.0070    -1.2140 ca         1 C2Q      -0.029000
     29 H013        -0.3610     0.0050     1.0210 hc         1 C2Q       0.013700
     30 H012        -0.3610    -0.8870    -0.5060 hc         1 C2Q       0.013700
     31 H011        -0.3610     0.8820    -0.5150 hc         1 C2Q       0.013700
     32 H031         1.6420     0.0000     2.1130 ha         1 C2Q       0.111000
     33 H041         4.1030    -0.0000     2.1490 ha         1 C2Q       0.101000
     34 H061         6.1410    -0.3800     1.0460 hc         1 C2Q       0.027200
     35 H062         6.1930    -0.6330    -0.7050 hc         1 C2Q       0.027200
     36 H081         4.4490     2.3390     0.3580 ha         1 C2Q       0.162000
     37 H141         9.5400     5.6750    -1.9550 h1         1 C2Q       0.082200
     38 H142         9.9170     5.7730    -0.1880 h1         1 C2Q       0.082200
     39 H151         7.7260     5.9090     0.2520 h1         1 C2Q       0.081700
     40 H212         7.8850     0.1880     1.4340 hx         1 C2Q       0.074533
     41 H211         9.3380    -0.6950     0.9470 hx         1 C2Q       0.074533
     42 H213         7.7570    -1.1810     0.3200 hx         1 C2Q       0.074533
     43 H223         7.6080     0.4440    -2.3910 hx         1 C2Q       0.074533
     44 H222         7.7950    -1.0970    -1.5430 hx         1 C2Q       0.074533
     45 H221         9.1980    -0.3260    -2.2960 hx         1 C2Q       0.074533
     46 H241         5.4220    -0.0020    -2.4060 ha         1 C2Q       0.094000
     47 H251         4.2020    -0.0030    -4.5190 ha         1 C2Q       0.102000
     48 H261         1.7420    -0.0030    -4.5560 ha         1 C2Q       0.106000
     49 H271         0.4610    -0.0010    -2.4800 ha         1 C2Q       0.114000
     50 H201         9.4810     0.9170    -0.5310 hn         1 C2Q       0.235800
@<TRIPOS>BOND
     1     1     2 1   
     2     1    29 1   
     3     1    30 1   
     4     1    31 1   
     5     2     3 ar  
     6     2    28 ar  
     7     3     4 ar  
     8     3    32 1   
     9     4     5 ar  
    10     4    33 1   
    11     5     6 1   
    12     5    23 ar  
    13     6     7 1   
    14     6    34 1   
    15     6    35 1   
    16     7     8 2   
    17     7    19 1   
    18     8     9 1   
    19     8    36 1   
    20     9    10 2   
    21     9    11 1   
    22    11    12 1   
    23    11    15 1   
    24    12    13 1   
    25    12    19 2   
    26    13    14 1   
    27    14    15 1   
    28    14    37 1   
    29    14    38 1   
    30    15    16 1   
    31    15    39 1   
    32    16    17 1   
    33    16    18 1   
    34    19    20 1   
    35    20    21 1   
    36    20    22 1   
    37    20    50 1   
    38    21    40 1   
    39    21    41 1   
    40    21    42 1   
    41    22    43 1   
    42    22    44 1   
    43    22    45 1   
    44    23    24 ar  
    45    23    28 ar  
    46    24    25 ar  
    47    24    46 1   
    48    25    26 ar  
    49    25    47 1   
    50    26    27 ar  
    51    26    48 1   
    52    27    28 ar  
    53    27    49 1   
@<TRIPOS>SUBSTRUCTURE
     1 C2Q         1 TEMP              0 ****  ****    0 ROOT
