@<TRIPOS>MOLECULE
C2R
   33    34     1     0     0
SMALL
bcc


@<TRIPOS>ATOM
      1 PA           0.0000     0.0000     0.0000 p5         1 C2R       0.671900
      2 O1A          1.4800     0.0000     0.0000 o          1 C2R      -0.767833
      3 O2A         -0.5370     0.0000     1.5170 o          1 C2R      -0.767833
      4 O3A         -0.5370    -1.3160    -0.7580 o          1 C2R      -0.767833
      5 O5'         -0.5370     1.3130    -0.7600 os         1 C2R      -0.442200
      6 C2'          0.4900     4.0400    -4.5410 c3         1 C2R       0.111100
      7 O2'         -0.2620     4.4920    -5.6680 oh         1 C2R      -0.567800
      8 C3'          0.1960     2.5480    -4.2580 c3         1 C2R       0.123100
      9 O3'         -0.7470     2.0340    -5.2000 oh         1 C2R      -0.568800
     10 C5'          0.0650     1.3160    -2.0550 c3         1 C2R       0.231400
     11 C4'         -0.4050     2.5460    -2.8350 c3         1 C2R       0.144100
     12 O4'          0.0980     3.7530    -2.2200 os         1 C2R      -0.349600
     13 C1'          0.0340     4.7610    -3.2530 c3         1 C2R       0.133800
     14 N1           0.9400     5.8690    -2.9410 na         1 C2R       0.230100
     15 C5           0.8500     7.1420    -3.4240 cc         1 C2R      -0.293000
     16 C4           1.9120     7.8440    -2.8710 cd         1 C2R       0.237800
     17 N3           2.5960     6.9800    -2.0710 nd         1 C2R      -0.586000
     18 C2           2.0240     5.8150    -2.1150 cc         1 C2R       0.202400
     19 N5          -0.1020     7.6310    -4.2930 nv         1 C2R      -0.440200
     20 C6           2.2320     9.2540    -3.0970 c          1 C2R       0.918100
     21 O7           3.2950     9.8120    -2.4830 o          1 C2R      -0.917300
     22 O8           1.5380     9.9230    -3.8400 o          1 C2R      -0.917300
     23 H3           0.3090     4.5730    -6.4140 ho         1 C2R       0.368000
     24 H1          -0.3340     1.3720    -5.7300 ho         1 C2R       0.366000
     25 H5'1        -0.2230     0.4190    -2.5890 h1         1 C2R       0.007700
     26 H5'2         1.1430     1.3440    -1.9520 h1         1 C2R       0.007700
     27 H4'         -1.4870     2.5760    -2.8860 h1         1 C2R       0.024700
     28 H1'         -0.9830     5.1180    -3.3650 h2         1 C2R       0.032700
     29 H2           2.3550     4.9360    -1.5750 h5         1 C2R       0.035100
     30 HN51         0.1790     8.1080    -5.1270 hn         1 C2R       0.251800
     31 HN52        -1.0740     7.4720    -4.1120 hn         1 C2R       0.251800
     32 H2'          1.5500     4.1900    -4.7010 h1         1 C2R       0.015700
     33 H3'          1.1140     1.9720    -4.2790 h1         1 C2R       0.019700
@<TRIPOS>BOND
     1     1     2 1   
     2     1     3 1   
     3     1     4 1   
     4     1     5 1   
     5     5    10 1   
     6     6     7 1   
     7     6     8 1   
     8     6    13 1   
     9     6    32 1   
    10     7    23 1   
    11     8     9 1   
    12     8    11 1   
    13     8    33 1   
    14     9    24 1   
    15    10    11 1   
    16    10    25 1   
    17    10    26 1   
    18    11    12 1   
    19    11    27 1   
    20    12    13 1   
    21    13    14 1   
    22    13    28 1   
    23    14    15 1   
    24    14    18 1   
    25    15    16 2   
    26    15    19 1   
    27    16    17 1   
    28    16    20 1   
    29    17    18 2   
    30    18    29 1   
    31    19    30 1   
    32    19    31 1   
    33    20    21 1   
    34    20    22 1   
@<TRIPOS>SUBSTRUCTURE
     1 C2R         1 TEMP              0 ****  ****    0 ROOT
