@<TRIPOS>MOLECULE
molecule
   27    26     1     0     0
SMALL
bcc


@<TRIPOS>ATOM
      1 C1           0.0000     0.0000     0.0000 c          1 C2T       0.893600
      2 N1          -2.9910     0.0010     2.2990 n7         1 C2T      -0.573000
      3 O1           1.3430     0.0000     0.0000 o          1 C2T      -0.817300
      4 C2          -0.7530     0.0000     1.3060 c3         1 C2T      -0.179400
      5 N2          -4.4280    -0.0000     2.0710 n4         1 C2T      -0.376600
      6 O2          -0.6040     0.0040    -1.0460 o          1 C2T      -0.817300
      7 C3          -2.2580     0.0000     1.0260 c3         1 C2T       0.117800
      8 C4          -4.8040     1.1990     1.3100 c3         1 C2T       0.078600
      9 C5          -4.8030    -1.2000     1.3110 c3         1 C2T       0.078600
     10 C6          -5.1280     0.0000     3.3630 c3         1 C2T       0.118800
     11 C10         -6.6390     0.0000     3.1230 c3         1 C2T      -0.127100
     12 H21C        -0.4910     0.8840     1.8740 hc         1 C2T       0.050700
     13 H22C        -0.4920    -0.8850     1.8740 hc         1 C2T       0.050700
     14 HA          -2.7380     0.8100     2.8300 hn         1 C2T       0.385800
     15 H31C        -2.5190     0.8850     0.4580 h1         1 C2T       0.067700
     16 H32C        -2.5200    -0.8840     0.4590 h1         1 C2T       0.067700
     17 H41C        -4.3180     1.1800     0.3420 hx         1 C2T       0.097367
     18 H42C        -5.8780     1.2190     1.1750 hx         1 C2T       0.097367
     19 H43C        -4.4920     2.0840     1.8530 hx         1 C2T       0.097367
     20 H51C        -4.4910    -1.0860     0.2800 hx         1 C2T       0.097367
     21 H52C        -4.3170    -2.0660     1.7420 hx         1 C2T       0.097367
     22 H53C        -5.8770    -1.3310     1.3510 hx         1 C2T       0.097367
     23 H61C        -4.8510    -0.8840     3.9240 hx         1 C2T       0.098700
     24 H62C        -4.8510     0.8850     3.9240 hx         1 C2T       0.098700
     25 H101        -6.9040     0.8380     2.4900 hc         1 C2T       0.065700
     26 H102        -6.9280    -0.9240     2.6390 hc         1 C2T       0.065700
     27 H103        -7.1550     0.0880     4.0720 hc         1 C2T       0.065700
@<TRIPOS>BOND
     1     1     3 1
     2     1     4 1
     3     1     6 1
     4     2     5 1
     5     2     7 1
     6     4     7 1
     7     5     8 1
     8     5     9 1
     9     5    10 1
    10    10    11 1
    11     4    12 1
    12     4    13 1
    13     2    14 1
    14     7    15 1
    15     7    16 1
    16     8    17 1
    17     8    18 1
    18     8    19 1
    19     9    20 1
    20     9    21 1
    21     9    22 1
    22    10    23 1
    23    10    24 1
    24    11    25 1
    25    11    26 1
    26    11    27 1
@<TRIPOS>SUBSTRUCTURE
     1 C2T         1 TEMP              0 ****  ****    0 ROOT
