@<TRIPOS>MOLECULE
C2U
   15    15     1     0     0
SMALL
bcc


@<TRIPOS>ATOM
      1 O7B         0.1430    0.1210   -0.0300 o         1 C2U     -0.822300
      2 C7          1.4010    0.1360    0.0230 c         1 C2U      0.920200
      3 O7A         2.0570    0.1940    1.1090 o         1 C2U     -0.822300
      4 C6          2.1730    0.0810   -1.2870 ca        1 C2U     -0.209600
      5 C1          1.4410    0.0190   -2.4710 ca        1 C2U     -0.056000
      6 C5          3.5850    0.0910   -1.3440 ca        1 C2U      0.199100
      7 O5          4.3840    0.1500   -0.2420 oh        1 C2U     -0.532100
      8 C4          4.2310    0.0380   -2.6010 ca        1 C2U     -0.052600
      9 CL4         5.9340    0.0470   -2.7390 cl        1 C2U     -0.126400
     10 C3          3.4850   -0.0240   -3.7800 ca        1 C2U     -0.105000
     11 C2          2.0940   -0.0330   -3.7060 ca        1 C2U     -0.044600
     12 CL2         1.1810   -0.1090   -5.1510 cl        1 C2U     -0.147400
     13 H1          0.3390    0.0130   -2.4000 ha        1 C2U      0.173000
     14 HO5         3.8210    0.1840    0.5650 ho        1 C2U      0.490000
     15 H3          3.9950   -0.0650   -4.7530 ha        1 C2U      0.136000
@<TRIPOS>BOND
     1    1    2 1   
     2    2    3 1   
     3    2    4 1   
     4    4    5 ar  
     5    4    6 ar  
     6    5   11 ar  
     7    5   13 1   
     8    6    7 1   
     9    6    8 ar  
    10    7   14 1   
    11    8    9 1   
    12    8   10 ar  
    13   10   11 ar  
    14   10   15 1   
    15   11   12 1   
@<TRIPOS>SUBSTRUCTURE
     1 C2U         1 TEMP              0 ****  ****    0 ROOT
