@<TRIPOS>MOLECULE
molecule
   15    15     1     0     0
SMALL
bcc


@<TRIPOS>ATOM
      1 O7B          0.0000     0.0000     0.0000 o          1 C2U      -0.817800
      2 C7           1.3470     0.0000     0.0000 c          1 C2U       0.882200
      3 O7A          1.9550     0.0000     1.0520 o          1 C2U      -0.817800
      4 C6           2.0840     0.0010    -1.2760 ca         1 C2U      -0.101600
      5 C1           1.3890     0.0010    -2.4900 ca         1 C2U      -0.069000
      6 C5           3.4850     0.0070    -1.2820 ca         1 C2U       0.146100
      7 O5           4.1710     0.0110    -0.1110 oh         1 C2U      -0.463100
      8 C4           4.1690     0.0070    -2.4890 ca         1 C2U      -0.045600
      9 Cl4          5.9050     0.0140    -2.5030 cl         1 C2U      -0.145400
     10 C3           3.4690     0.0000    -3.6810 ca         1 C2U      -0.126000
     11 C2           2.0840     0.0000    -3.6800 ca         1 C2U      -0.006600
     12 Cl2          1.2180    -0.0000    -5.1850 cl         1 C2U      -0.150400
     13 H1           0.3060     0.0010    -2.4940 ha         1 C2U       0.176000
     14 HO5          4.7140     0.7810    -0.0680 ho         1 C2U       0.406000
     15 H3           4.0070     0.0000    -4.6210 ha         1 C2U       0.133000
@<TRIPOS>BOND
     1     1     2 1
     2     2     3 1
     3     2     4 1
     4     4     5 ar
     5     4     6 ar
     6     5    11 ar
     7     6     7 1
     8     6     8 ar
     9     8     9 1
    10     8    10 ar
    11    10    11 ar
    12    11    12 1
    13     5    13 1
    14     7    14 1
    15    10    15 1
@<TRIPOS>SUBSTRUCTURE
     1 C2U         1 TEMP              0 ****  ****    0 ROOT
