@<TRIPOS>MOLECULE
molecule
   49    52     1     0     0
SMALL
bcc


@<TRIPOS>ATOM
      1 C10          0.0000     0.0000     0.0000 cc         1 C2V      -0.273300
      2 C15          4.8520    -0.0220     5.9160 ca         1 C2V      -0.144600
      3 C17          2.9810    -0.0020    -3.6480 cd         1 C2V      -0.056100
      4 C22          6.7550    -0.0450     9.2060 c3         1 C2V       0.112000
      5 C24          5.8870    -0.0110     4.9770 ca         1 C2V      -0.107000
      6 C26          8.2730    -0.0430     9.4010 c3         1 C2V       0.143800
      7 C28         10.0150    -0.2910    11.0650 c3         1 C2V       0.149600
      8 C03          1.8380     0.0010     3.6590 cd         1 C2V      -0.082300
      9 C04          0.0360     0.0000     2.3890 cd         1 C2V      -0.090300
     10 C05          1.4120     0.0000     0.0000 cd         1 C2V       0.511800
     11 C07          0.7100     0.0000     4.4510 cc         1 C2V       0.036600
     12 C08          3.2420     0.0010     4.1240 ca         1 C2V      -0.025800
     13 C09          2.1450    -0.0010    -1.2820 cd         1 C2V      -0.112600
     14 C11         -0.6810     0.0000     1.1760 cd         1 C2V      -0.009000
     15 C14          3.5260    -0.0160     5.4870 ca         1 C2V      -0.056000
     16 C16          3.4870     0.0080    -1.4130 cc         1 C2V      -0.105000
     17 C19          3.9390     0.0030    -2.7160 cc         1 C2V      -0.165000
     18 C23          4.2860     0.0010     3.1950 ca         1 C2V      -0.096000
     19 C25          5.5980     0.0010     3.6280 ca         1 C2V      -0.137000
     20 C27          8.1450     1.1920    11.4800 c3         1 C2V       0.149600
     21 N01          1.4070     0.0010     2.3580 na         1 C2V       0.202200
     22 N02          2.0830     0.0000     1.1340 nc         1 C2V      -0.495800
     23 N06         -0.3560    -0.0000     3.6580 nc         1 C2V      -0.283600
     24 N20          6.4470    -0.0340     7.7750 ns         1 C2V      -0.587900
     25 N21          8.5820    -0.0550    10.8380 n3         1 C2V      -0.726600
     26 O18          4.2630    -0.0440     8.1770 o          1 C2V      -0.606100
     27 S13          1.4010    -0.0020    -2.8760 ss         1 C2V      -0.122800
     28 H1          -0.5410    -0.0010    -0.9390 ha         1 C2V       0.153000
     29 H2           3.1530    -0.0050    -4.7180 h4         1 C2V       0.176000
     30 H3           6.3350    -0.9350     9.6590 h1         1 C2V       0.062700
     31 H4           6.3300     0.8340     9.6740 h1         1 C2V       0.062700
     32 H5           6.9180    -0.0110     5.3090 ha         1 C2V       0.123000
     33 H6           8.6990    -0.9220     8.9320 h1         1 C2V       0.034700
     34 H7           8.6940     0.8470     8.9480 h1         1 C2V       0.034700
     35 H8          10.3100    -1.2150    10.5840 h1         1 C2V       0.034367
     36 H9          10.2040    -0.3610    12.1290 h1         1 C2V       0.034367
     37 H10         10.5860     0.5310    10.6500 h1         1 C2V       0.034367
     38 H11          0.6950     0.0000     5.5340 h4         1 C2V       0.197000
     39 H12         -1.7640     0.0000     1.1800 ha         1 C2V       0.167000
     40 H13          2.7200    -0.0250     6.2110 ha         1 C2V       0.160000
     41 H14          4.1570     0.0130    -0.5610 ha         1 C2V       0.164000
     42 H15          4.9930     0.0060    -2.9650 ha         1 C2V       0.154000
     43 H16          4.0660     0.0110     2.1350 ha         1 C2V       0.159000
     44 H17          6.4040     0.0060     2.9040 ha         1 C2V       0.133000
     45 H18          7.0900     1.1250    11.7190 h1         1 C2V       0.034367
     46 H19          8.3100     2.0230    10.8050 h1         1 C2V       0.034367
     47 H20          8.7120     1.3470    12.3900 h1         1 C2V       0.034367
     48 H21          7.1890    -0.0470     7.1030 hn         1 C2V       0.311500
     49 C12          5.1630    -0.0340     7.3610 c          1 C2V       0.675700
@<TRIPOS>BOND
     1    17     3 2
     2    17    16 1
     3     3    27 1
     4    16    13 2
     5    13    27 1
     6    13    10 1
     7     6    25 1
     8     6     4 1
     9     1    10 1
    10     1    14 2
    11    10    22 2
    12    25     7 1
    13    25    20 1
    14     4    24 1
    15    14     9 1
    16    22    21 1
    17    24    49 1
    18    21     9 1
    19    21     8 1
    20     9    23 2
    21    49    26 2
    22    49     2 1
    23    15     2 ar
    24    15    12 ar
    25    23    11 1
    26     8    12 1
    27     8    11 2
    28     2     5 ar
    29    12    18 ar
    30     5    19 ar
    31    18    19 ar
    32     1    28 1
    33     3    29 1
    34     4    30 1
    35     4    31 1
    36     5    32 1
    37     6    33 1
    38     6    34 1
    39     7    35 1
    40     7    36 1
    41     7    37 1
    42    11    38 1
    43    14    39 1
    44    15    40 1
    45    16    41 1
    46    17    42 1
    47    18    43 1
    48    19    44 1
    49    20    45 1
    50    20    46 1
    51    20    47 1
    52    24    48 1
@<TRIPOS>SUBSTRUCTURE
     1 C2V         1 TEMP              0 ****  ****    0 ROOT
