@<TRIPOS>MOLECULE
C2V
   49    52     1     0     0
SMALL
bcc


@<TRIPOS>ATOM
      1 C10          0.0000     0.0000     0.0000 cc         1 C2V      -0.284300
      2 C15          4.8520    -0.0220     5.9160 ca         1 C2V      -0.150600
      3 C17          2.9810    -0.0020    -3.6480 cc         1 C2V       0.027900
      4 C22          6.7550    -0.0450     9.2060 c3         1 C2V       0.042000
      5 C24          5.8870    -0.0110     4.9770 ca         1 C2V      -0.092000
      6 C26          8.2730    -0.0430     9.4010 c3         1 C2V       0.139800
      7 C28         10.0150    -0.2910    11.0650 c3         1 C2V       0.181100
      8 C03          1.8380     0.0010     3.6590 cd         1 C2V      -0.280300
      9 C04          0.0360     0.0000     2.3890 cd         1 C2V      -0.307300
     10 C05          1.4120     0.0000     0.0000 cc         1 C2V       0.559800
     11 C07          0.7100     0.0000     4.4510 cc         1 C2V       0.043600
     12 C08          3.2420     0.0010     4.1240 ca         1 C2V      -0.007800
     13 C09          2.1450    -0.0010    -1.2820 cc         1 C2V      -0.080600
     14 C11         -0.6810     0.0000     1.1760 cd         1 C2V       0.052000
     15 C14          3.5260    -0.0160     5.4870 ca         1 C2V      -0.030000
     16 C16          3.4870     0.0080    -1.4130 cd         1 C2V      -0.071000
     17 C19          3.9390     0.0030    -2.7160 cd         1 C2V      -0.137000
     18 C23          4.2860     0.0010     3.1950 ca         1 C2V      -0.096000
     19 C25          5.5980     0.0010     3.6280 ca         1 C2V      -0.103000
     20 C27          8.1450     1.1920    11.4800 c3         1 C2V       0.181100
     21 N01          1.4070     0.0010     2.3580 na         1 C2V       0.710200
     22 N02          2.0830     0.0000     1.1340 nd         1 C2V      -0.637800
     23 N06         -0.3560    -0.0000     3.6580 nc         1 C2V      -0.204600
     24 N20          6.4470    -0.0340     7.7750 ns         1 C2V      -0.202900
     25 N21          8.5820    -0.0550    10.8380 n3         1 C2V      -0.537600
     26 O18          4.2630    -0.0440     8.1770 o          1 C2V      -0.647100
     27 S13          1.4010    -0.0020    -2.8760 ss         1 C2V      -0.250800
     28 H1          -0.5410    -0.0010    -0.9390 ha         1 C2V       0.139000
     29 H2           3.1530    -0.0050    -4.7180 h4         1 C2V       0.151000
     30 H3           6.3350    -0.9350     9.6590 h1         1 C2V       0.035700
     31 H4           6.3300     0.8340     9.6740 h1         1 C2V       0.035700
     32 H5           6.9180    -0.0110     5.3090 ha         1 C2V       0.099000
     33 H6           8.6990    -0.9220     8.9320 h1         1 C2V       0.008700
     34 H7           8.6940     0.8470     8.9480 h1         1 C2V       0.008700
     35 H8          10.3100    -1.2150    10.5840 h1         1 C2V       0.003200
     36 H9          10.2040    -0.3610    12.1290 h1         1 C2V       0.003200
     37 H10         10.5860     0.5310    10.6500 h1         1 C2V       0.003200
     38 H11          0.6950     0.0000     5.5340 h4         1 C2V       0.154000
     39 H12         -1.7640     0.0000     1.1800 ha         1 C2V       0.125000
     40 H13          2.7200    -0.0250     6.2110 ha         1 C2V       0.134000
     41 H14          4.1570     0.0130    -0.5610 ha         1 C2V       0.135000
     42 H15          4.9930     0.0060    -2.9650 ha         1 C2V       0.124000
     43 H16          4.0660     0.0110     2.1350 ha         1 C2V       0.133000
     44 H17          6.4040     0.0060     2.9040 ha         1 C2V       0.104000
     45 H18          7.0900     1.1250    11.7190 h1         1 C2V       0.003200
     46 H19          8.3100     2.0230    10.8050 h1         1 C2V       0.003200
     47 H20          8.7120     1.3470    12.3900 h1         1 C2V       0.003200
     48 H21          7.1890    -0.0470     7.1030 hn         1 C2V       0.177500
     49 C12          5.1630    -0.0340     7.3610 c          1 C2V       0.597700
@<TRIPOS>BOND
     1     1    10 1   
     2     1    14 2   
     3     1    28 1   
     4     2     5 ar  
     5     2    15 ar  
     6     2    49 1   
     7     3    17 2   
     8     3    27 1   
     9     3    29 1   
    10     4     6 1   
    11     4    24 1   
    12     4    30 1   
    13     4    31 1   
    14     5    19 ar  
    15     5    32 1   
    16     6    25 1   
    17     6    33 1   
    18     6    34 1   
    19     7    25 1   
    20     7    35 1   
    21     7    36 1   
    22     7    37 1   
    23     8    11 2   
    24     8    12 1   
    25     8    21 1   
    26     9    14 1   
    27     9    21 1   
    28     9    23 2   
    29    10    13 1   
    30    10    22 2   
    31    11    23 1   
    32    11    38 1   
    33    12    15 ar  
    34    12    18 ar  
    35    13    16 2   
    36    13    27 1   
    37    14    39 1   
    38    15    40 1   
    39    16    17 1   
    40    16    41 1   
    41    17    42 1   
    42    18    19 ar  
    43    18    43 1   
    44    19    44 1   
    45    20    25 1   
    46    20    45 1   
    47    20    46 1   
    48    20    47 1   
    49    21    22 1   
    50    24    48 1   
    51    24    49 1   
    52    26    49 2   
@<TRIPOS>SUBSTRUCTURE
     1 C2V         1 TEMP              0 ****  ****    0 ROOT
