@<TRIPOS>MOLECULE
molecule
   22    23     1     0     0
SMALL
bcc


@<TRIPOS>ATOM
      1 C4           0.0000     0.0000     0.0000 ca         1 C2Y      -0.053200
      2 C5           1.4040     0.0000     0.0000 ca         1 C2Y      -0.054800
      3 C6           2.1020     0.0000     1.2040 ca         1 C2Y      -0.072000
      4 C7           1.4090     0.0000     2.3950 ca         1 C2Y      -0.151000
      5 C8           0.0220     0.0010     2.3960 ca         1 C2Y      -0.109000
      6 C9          -0.6820     0.0060     1.2120 ca         1 C2Y      -0.142000
      7 N           -0.4140    -0.0000    -1.3160 na         1 C2Y      -0.168400
      8 O            4.1210    -0.0020    -1.1750 o          1 C2Y      -0.556000
      9 C1           4.7740    -0.0040    -3.7190 c3         1 C2Y       0.142700
     10 C2           1.8080    -0.0010    -1.4180 cc         1 C2Y      -0.213400
     11 C3           0.6540    -0.0010    -2.1480 cd         1 C2Y      -0.034100
     12 O1           3.3920    -0.0030    -3.2740 os         1 C2Y      -0.439900
     13 H1           3.1850    -0.0010     1.2050 ha         1 C2Y       0.157000
     14 H2           1.9490    -0.0040     3.3340 ha         1 C2Y       0.133000
     15 H3          -0.5140     0.0010     3.3380 ha         1 C2Y       0.131000
     16 H4          -1.7660     0.0070     1.2240 ha         1 C2Y       0.126000
     17 H5          -1.3700    -0.0000    -1.6140 hn         1 C2Y       0.300700
     18 H6           5.2740     0.8800    -3.3440 h1         1 C2Y       0.047367
     19 H7           5.2730    -0.8890    -3.3440 h1         1 C2Y       0.047367
     20 H8           4.8040    -0.0040    -4.8020 h1         1 C2Y       0.047367
     21 H9           0.6010    -0.0020    -3.2300 h4         1 C2Y       0.181000
     22 C            3.1780    -0.0020    -1.9420 c          1 C2Y       0.678300
@<TRIPOS>BOND
     1     4     5 ar
     2     4     3 ar
     3     5     6 ar
     4     3     2 ar
     5     6     1 ar
     6     2     1 ar
     7     2    10 1
     8    12     9 1
     9    12    22 1
    10     1     7 1
    11    10    22 1
    12    10    11 2
    13    22     8 2
    14     7    11 1
    15     3    13 1
    16     4    14 1
    17     5    15 1
    18     6    16 1
    19     7    17 1
    20     9    18 1
    21     9    19 1
    22     9    20 1
    23    11    21 1
@<TRIPOS>SUBSTRUCTURE
     1 C2Y         1 TEMP              0 ****  ****    0 ROOT
