@<TRIPOS>MOLECULE
molecule
   83    85     1     0     0
SMALL
bcc


@<TRIPOS>ATOM
      1 C5           0.0000     0.0000     0.0000 ce         1 C33      -0.078200
      2 C10          1.4780     0.0000     0.0000 ce         1 C33      -0.095200
      3 C1           2.1600     0.0000     1.3540 c3         1 C33       0.190300
      4 C2           1.4860    -1.0570     2.2350 c3         1 C33      -0.068700
      5 C3          -0.0090    -0.7550     2.3530 c3         1 C33       0.155100
      6 C4          -0.6830    -0.9250     0.9880 c3         1 C33      -0.056200
      7 C6          -0.7070     0.7870    -0.8360 cf         1 C33      -0.122000
      8 C7          -0.0110     1.6730    -1.7730 cf         1 C33      -0.159000
      9 C8          -0.7090     2.4520    -2.5990 c2         1 C33      -0.095400
     10 C14         -0.0510     3.3770    -3.5780 c3         1 C33      -0.034500
     11 C13         -0.5810     4.7970    -3.2300 c3         1 C33      -0.061000
     12 C12         -2.0600     4.8220    -3.5390 c3         1 C33      -0.065400
     13 C11         -2.7600     3.8950    -2.5310 c3         1 C33      -0.078400
     14 C9          -2.2310     2.4610    -2.6190 c3         1 C33      -0.044200
     15 C15          1.4590     3.5770    -3.4290 c3         1 C33      -0.078400
     16 C16          1.6910     4.9590    -4.1010 c3         1 C33      -0.081400
     17 C17          0.3390     5.7150    -4.0210 c3         1 C33      -0.054700
     18 C19          2.1770     0.0000    -1.1340 c2         1 C33      -0.211000
     19 O3          -0.6030    -1.6550     3.2910 oh         1 C33      -0.610800
     20 O1           2.0270     1.2880     1.9590 oh         1 C33      -0.595800
     21 C20          0.5160     7.0480    -3.2910 c3         1 C33      -0.072700
     22 C22          1.5600     7.8940    -4.0220 c3         1 C33      -0.082400
     23 C18         -0.3720     5.0590    -1.7360 c3         1 C33      -0.092100
     24 C21         -0.8180     7.7950    -3.2610 c3         1 C33      -0.093100
     25 C23          1.8290     9.1720    -3.2250 c3         1 C33      -0.083400
     26 C24          2.8720    10.0200    -3.9570 c3         1 C33      -0.066400
     27 C25          3.1410    11.2970    -3.1600 c3         1 C33       0.147800
     28 O25          3.7390    10.9600    -1.9070 oh         1 C33      -0.603800
     29 C27          4.0890    12.2010    -3.9500 c3         1 C33      -0.120100
     30 C26          1.8220    12.0320    -2.9130 c3         1 C33      -0.120100
     31 C28          2.1200    -1.0390     3.6270 c3         1 C33      -0.079400
     32 C29          3.5840    -1.4710     3.5260 c3         1 C33      -0.086400
     33 C30          4.2180    -1.4530     4.9170 c3         1 C33      -0.091100
     34 H1           3.2080    -0.2450     1.2320 h1         1 C33       0.042700
     35 H2           1.6190    -2.0340     1.7870 hc         1 C33       0.068700
     36 H3          -0.1420     0.2650     2.6930 h1         1 C33       0.054700
     37 H41         -1.7320    -0.6640     1.0650 hc         1 C33       0.055700
     38 H42         -0.5800    -1.9510     0.6570 hc         1 C33       0.055700
     39 H6          -1.7900     0.7660    -0.8130 ha         1 C33       0.133000
     40 H7           1.0720     1.6850    -1.8030 ha         1 C33       0.146000
     41 H14         -0.3080     3.1110    -4.5970 hc         1 C33       0.065700
     42 H121        -2.4390     5.8320    -3.4340 hc         1 C33       0.044700
     43 H122        -2.2290     4.4630    -4.5470 hc         1 C33       0.044700
     44 H111        -2.5910     4.2720    -1.5300 hc         1 C33       0.043200
     45 H112        -3.8230     3.8910    -2.7380 hc         1 C33       0.043200
     46 H91         -2.5780     2.0090    -3.5410 hc         1 C33       0.048700
     47 H92         -2.6020     1.8920    -1.7750 hc         1 C33       0.048700
     48 H151         1.7380     3.6090    -2.3830 hc         1 C33       0.047700
     49 H152         2.0010     2.8000    -3.9550 hc         1 C33       0.047700
     50 H161         2.4550     5.5080    -3.5640 hc         1 C33       0.044700
     51 H162         1.9790     4.8240    -5.1360 hc         1 C33       0.044700
     52 H17         -0.0590     5.8750    -5.0160 hc         1 C33       0.052700
     53 H191         3.2600     0.0000    -1.1020 ha         1 C33       0.121500
     54 H192         1.6630     0.0000    -2.0870 ha         1 C33       0.121500
     55 HO3         -1.2850    -1.2100     3.7650 ho         1 C33       0.401000
     56 HO1          2.8720     1.7050     1.9970 ho         1 C33       0.401000
     57 H20          0.8490     6.8620    -2.2770 hc         1 C33       0.063700
     58 H221         1.1880     8.1540    -5.0060 hc         1 C33       0.040700
     59 H222         2.4790     7.3300    -4.1210 hc         1 C33       0.040700
     60 H181        -0.5590     4.1480    -1.1810 hc         1 C33       0.041033
     61 H182         0.6480     5.3830    -1.5660 hc         1 C33       0.041033
     62 H183        -1.0560     5.8310    -1.4060 hc         1 C33       0.041033
     63 H211        -0.6530     8.8400    -3.4920 hc         1 C33       0.035367
     64 H212        -1.2580     7.7090    -2.2740 hc         1 C33       0.035367
     65 H213        -1.4900     7.3640    -3.9940 hc         1 C33       0.035367
     66 H231         0.9100     9.7370    -3.1260 hc         1 C33       0.051700
     67 H232         2.2000     8.9120    -2.2410 hc         1 C33       0.051700
     68 H241         3.7920     9.4550    -4.0550 hc         1 C33       0.048200
     69 H242         2.5010    10.2790    -4.9410 hc         1 C33       0.048200
     70 H25          4.2000    11.7090    -1.5660 ho         1 C33       0.401000
     71 H271         4.3070    13.0900    -3.3700 hc         1 C33       0.041533
     72 H272         3.6210    12.4860    -4.8850 hc         1 C33       0.041533
     73 H273         5.0100    11.6680    -4.1540 hc         1 C33       0.041533
     74 H261         1.3070    11.5780    -2.0750 hc         1 C33       0.041533
     75 H262         1.2000    11.9660    -3.7970 hc         1 C33       0.041533
     76 H263         2.0250    13.0730    -2.6910 hc         1 C33       0.041533
     77 H281         2.0660    -0.0370     4.0360 hc         1 C33       0.057200
     78 H282         1.5860    -1.7220     4.2760 hc         1 C33       0.057200
     79 H291         4.1180    -0.7870     2.8770 hc         1 C33       0.035700
     80 H292         3.6370    -2.4730     3.1170 hc         1 C33       0.035700
     81 H301         5.2240    -1.8530     4.8610 hc         1 C33       0.033033
     82 H302         3.6260    -2.0600     5.5920 hc         1 C33       0.033033
     83 H303         4.2550    -0.4350     5.2850 hc         1 C33       0.033033
@<TRIPOS>BOND
     1     1     2 1
     2     1     6 1
     3     1     7 2
     4     2     3 1
     5     2    18 2
     6     3     4 1
     7     3    20 1
     8     3    34 1
     9     4     5 1
    10     4    31 1
    11     4    35 1
    12     5     6 1
    13     5    19 1
    14     5    36 1
    15     6    37 1
    16     6    38 1
    17     7     8 1
    18     7    39 1
    19     8     9 2
    20     8    40 1
    21     9    10 1
    22     9    14 1
    23    10    11 1
    24    10    15 1
    25    10    41 1
    26    11    12 1
    27    11    17 1
    28    11    23 1
    29    12    13 1
    30    12    42 1
    31    12    43 1
    32    13    14 1
    33    13    44 1
    34    13    45 1
    35    14    46 1
    36    14    47 1
    37    15    16 1
    38    15    48 1
    39    15    49 1
    40    16    17 1
    41    16    50 1
    42    16    51 1
    43    17    21 1
    44    17    52 1
    45    18    53 1
    46    18    54 1
    47    19    55 1
    48    20    56 1
    49    21    22 1
    50    21    24 1
    51    21    57 1
    52    22    25 1
    53    22    58 1
    54    22    59 1
    55    23    60 1
    56    23    61 1
    57    23    62 1
    58    24    63 1
    59    24    64 1
    60    24    65 1
    61    25    26 1
    62    25    66 1
    63    25    67 1
    64    26    27 1
    65    26    68 1
    66    26    69 1
    67    27    28 1
    68    27    29 1
    69    27    30 1
    70    28    70 1
    71    29    71 1
    72    29    72 1
    73    29    73 1
    74    30    74 1
    75    30    75 1
    76    30    76 1
    77    31    32 1
    78    31    77 1
    79    31    78 1
    80    32    33 1
    81    32    79 1
    82    32    80 1
    83    33    81 1
    84    33    82 1
    85    33    83 1
@<TRIPOS>SUBSTRUCTURE
     1 C33         1 TEMP              0 ****  ****    0 ROOT
