@<TRIPOS>MOLECULE
C33
   83    85     1     0     0
SMALL
bcc


@<TRIPOS>ATOM
      1 C5          0.1670   -0.0090    0.3080 ce        1 C33     -0.068200
      2 C10         1.6210   -0.1670    0.3080 ce        1 C33     -0.122200
      3 C1          2.2540   -0.4130    1.6550 c3        1 C33      0.181300
      4 C2          1.5370   -1.5490    2.3980 c3        1 C33     -0.046700
      5 C3          0.0480   -1.2020    2.5120 c3        1 C33      0.145100
      6 C4         -0.5780   -1.0050    1.1310 c3        1 C33     -0.074200
      7 C6         -0.4970    0.9410   -0.3840 cf        1 C33     -0.117000
      8 C7          0.1250    1.9630   -1.1920 cf        1 C33     -0.153000
      9 C8         -0.4750    2.6730   -2.1630 c2        1 C33     -0.075400
     10 C14         0.2230    3.7160   -2.9590 c3        1 C33     -0.038500
     11 C13        -0.5360    5.0720   -2.8960 c3        1 C33     -0.040000
     12 C12        -1.8940    4.8470   -3.5430 c3        1 C33     -0.067400
     13 C11        -2.6590    3.7510   -2.8220 c3        1 C33     -0.073400
     14 C9         -1.8770    2.4620   -2.6380 c3        1 C33     -0.044200
     15 C15         1.6670    4.0920   -2.6660 c3        1 C33     -0.073400
     16 C16         1.8330    5.4820   -3.2830 c3        1 C33     -0.079400
     17 C17         0.4310    5.9950   -3.6740 c3        1 C33     -0.053700
     18 C19         2.3620   -0.1310   -0.8050 c2        1 C33     -0.193000
     19 O3         -0.5900   -2.2920    3.1710 oh        1 C33     -0.600800
     20 O1          2.2020    0.7490    2.4790 oh        1 C33     -0.595800
     21 C20         0.2870    7.4950   -3.4360 c3        1 C33     -0.055700
     22 C22         1.3230    8.2630   -4.2560 c3        1 C33     -0.079400
     23 C18        -0.6940    5.5430   -1.4600 c3        1 C33     -0.083100
     24 C21        -1.1020    7.9900   -3.7930 c3        1 C33     -0.091100
     25 C23         1.6290    9.6180   -3.6520 c3        1 C33     -0.079400
     26 C24         2.6060   10.3860   -4.5150 c3        1 C33     -0.064400
     27 C25         3.0990   11.6770   -3.8540 c3        1 C33      0.147800
     28 O25         3.8020   11.2740   -2.6760 oh        1 C33     -0.597800
     29 C27         4.0560   12.4000   -4.7980 c3        1 C33     -0.123100
     30 C26         1.9450   12.5990   -3.4820 c3        1 C33     -0.123100
     31 C28         2.1450   -1.7930    3.7690 c3        1 C33     -0.078400
     32 C29         3.4540   -2.5490    3.6870 c3        1 C33     -0.077400
     33 C30         4.0220   -2.8090    5.0590 c3        1 C33     -0.091100
     34 H1          3.3400   -0.6930    1.5200 h1        1 C33      0.041700
     35 H2          1.6370   -2.4820    1.7780 hc        1 C33      0.064700
     36 H3         -0.0660   -0.2660    3.1270 h1        1 C33      0.056700
     37 H41        -1.6480   -0.6920    1.2590 hc        1 C33      0.053700
     38 H42        -0.5810   -1.9920    0.5920 hc        1 C33      0.053700
     39 H6         -1.5990    0.9720   -0.3160 ha        1 C33      0.124000
     40 H7          1.1900    2.1590   -0.9630 ha        1 C33      0.128000
     41 H14         0.1880    3.3620   -4.0350 hc        1 C33      0.054700
     42 H121       -1.7520    4.5650   -4.6190 hc        1 C33      0.042700
     43 H122       -2.4990    5.7900   -3.5210 hc        1 C33      0.042700
     44 H111       -3.5940    3.5210   -3.3990 hc        1 C33      0.041200
     45 H112       -2.9780    4.1320   -1.8150 hc        1 C33      0.041200
     46 H91        -1.8210    1.9230   -3.6240 hc        1 C33      0.047200
     47 H92        -2.4450    1.7990   -1.9340 hc        1 C33      0.047200
     48 H151        1.8570    4.1300   -1.5640 hc        1 C33      0.043700
     49 H152        2.3790    3.3570   -3.1120 hc        1 C33      0.043700
     50 H161        2.3140    6.1750   -2.5480 hc        1 C33      0.044200
     51 H162        2.4880    5.4330   -4.1870 hc        1 C33      0.044200
     52 H17         0.2720    5.8080   -4.7720 hc        1 C33      0.045700
     53 H191        3.4520   -0.2660   -0.7890 ha        1 C33      0.120500
     54 H192        1.9210    0.0260   -1.7990 ha        1 C33      0.120500
     55 HO3        -1.5120   -2.0360    3.2910 ho        1 C33      0.398000
     56 HO1         2.4100    1.5030    1.9160 ho        1 C33      0.404000
     57 H20         0.4720    7.7030   -2.3440 hc        1 C33      0.053700
     58 H221        2.2770    7.6770   -4.3210 hc        1 C33      0.040200
     59 H222        0.9450    8.3910   -5.3040 hc        1 C33      0.040200
     60 H181       -1.3740    6.4270   -1.4110 hc        1 C33      0.037700
     61 H182        0.2980    5.8300   -1.0340 hc        1 C33      0.037700
     62 H183       -1.1230    4.7290   -0.8260 hc        1 C33      0.037700
     63 H211       -1.8420    7.6940   -3.0110 hc        1 C33      0.033700
     64 H212       -1.4310    7.5680   -4.7740 hc        1 C33      0.033700
     65 H213       -1.1110    9.1040   -3.8700 hc        1 C33      0.033700
     66 H231        2.0680    9.4880   -2.6270 hc        1 C33      0.048700
     67 H232        0.6820   10.2080   -3.5370 hc        1 C33      0.048700
     68 H241        3.4980    9.7410   -4.7310 hc        1 C33      0.047200
     69 H242        2.1270   10.6540   -5.4920 hc        1 C33      0.047200
     70 H25         4.1170   12.0810   -2.2520 ho        1 C33      0.397000
     71 H271        4.4500   13.3260   -4.3160 hc        1 C33      0.042367
     72 H272        4.9170   11.7360   -5.0500 hc        1 C33      0.042367
     73 H273        3.5250   12.6810   -5.7380 hc        1 C33      0.042367
     74 H261        1.2790   12.7520   -4.3630 hc        1 C33      0.042367
     75 H262        1.3510   12.1510   -2.6490 hc        1 C33      0.042367
     76 H263        2.3330   13.5900   -3.1460 hc        1 C33      0.042367
     77 H281        1.4160   -2.3850    4.3850 hc        1 C33      0.060700
     78 H282        2.3060   -0.8090    4.2850 hc        1 C33      0.060700
     79 H291        4.1940   -1.9620    3.0820 hc        1 C33      0.034700
     80 H292        3.2920   -3.5250    3.1570 hc        1 C33      0.034700
     81 H301        4.2100   -1.8480    5.5960 hc        1 C33      0.032367
     82 H302        3.3120   -3.4170    5.6710 hc        1 C33      0.032367
     83 H303        4.9870   -3.3650    4.9820 hc        1 C33      0.032367
@<TRIPOS>BOND
     1    1    2 1   
     2    1    6 1   
     3    1    7 2   
     4    2    3 1   
     5    2   18 2   
     6    3    4 1   
     7    3   20 1   
     8    3   34 1   
     9    4    5 1   
    10    4   31 1   
    11    4   35 1   
    12    5    6 1   
    13    5   19 1   
    14    5   36 1   
    15    6   37 1   
    16    6   38 1   
    17    7    8 1   
    18    7   39 1   
    19    8    9 2   
    20    8   40 1   
    21    9   10 1   
    22    9   14 1   
    23   10   11 1   
    24   10   15 1   
    25   10   41 1   
    26   11   12 1   
    27   11   17 1   
    28   11   23 1   
    29   12   13 1   
    30   12   42 1   
    31   12   43 1   
    32   13   14 1   
    33   13   44 1   
    34   13   45 1   
    35   14   46 1   
    36   14   47 1   
    37   15   16 1   
    38   15   48 1   
    39   15   49 1   
    40   16   17 1   
    41   16   50 1   
    42   16   51 1   
    43   17   21 1   
    44   17   52 1   
    45   18   53 1   
    46   18   54 1   
    47   19   55 1   
    48   20   56 1   
    49   21   22 1   
    50   21   24 1   
    51   21   57 1   
    52   22   25 1   
    53   22   58 1   
    54   22   59 1   
    55   23   60 1   
    56   23   61 1   
    57   23   62 1   
    58   24   63 1   
    59   24   64 1   
    60   24   65 1   
    61   25   26 1   
    62   25   66 1   
    63   25   67 1   
    64   26   27 1   
    65   26   68 1   
    66   26   69 1   
    67   27   28 1   
    68   27   29 1   
    69   27   30 1   
    70   28   70 1   
    71   29   71 1   
    72   29   72 1   
    73   29   73 1   
    74   30   74 1   
    75   30   75 1   
    76   30   76 1   
    77   31   32 1   
    78   31   77 1   
    79   31   78 1   
    80   32   33 1   
    81   32   79 1   
    82   32   80 1   
    83   33   81 1   
    84   33   82 1   
    85   33   83 1   
@<TRIPOS>SUBSTRUCTURE
     1 C33         1 TEMP              0 ****  ****    0 ROOT
