@<TRIPOS>MOLECULE
molecule
   83    83     1     0     0
SMALL
bcc


@<TRIPOS>ATOM
      1 C1           0.0000     0.0000     0.0000 c3         1 C39       0.129700
      2 O2           1.4290     0.0000     0.0000 os         1 C39      -0.426600
      3 C3           2.0110     0.0000     1.3060 c3         1 C39       0.140400
      4 C4           3.5360    -0.0000     1.1850 c3         1 C39      -0.080400
      5 C5           4.1580    -0.0010     2.5830 c3         1 C39       0.131400
      6 O6           5.5820    -0.0010     2.4690 os         1 C39      -0.286900
      7 C7           6.2920    -0.0010     3.6260 ca         1 C39       0.210100
      8 C8           5.6340    -0.0010     4.8470 ca         1 C39      -0.229000
      9 C9           6.3580    -0.0020     6.0230 ca         1 C39      -0.053000
     10 C10          7.7420    -0.0030     5.9930 ca         1 C39      -0.176000
     11 C11          8.4120    -0.0030     4.7890 ca         1 C39      -0.073000
     12 C12          7.6930    -0.0080     3.5920 ca         1 C39      -0.195600
     13 C13          8.4040    -0.0130     2.2990 c          1 C39       0.680700
     14 O14          7.7750    -0.0130     1.2590 o          1 C39      -0.574100
     15 N15          9.7510    -0.0200     2.2720 ns         1 C39      -0.603900
     16 C16         10.4580    -0.0260     0.9880 c3         1 C39       0.113000
     17 C17         11.9630     0.1000     1.2330 c3         1 C39      -0.101700
     18 C18         12.2640     1.4550     1.8760 c3         1 C39      -0.069700
     19 C19         13.7590     1.5510     2.1850 c3         1 C39      -0.095600
     20 C20         11.8690     2.5750     0.9130 c3         1 C39      -0.095600
     21 C21         12.7070    -0.0090    -0.1000 c3         1 C39      -0.103400
     22 C22         12.5230    -1.4150    -0.6730 c3         1 C39       0.093500
     23 N23         13.1730    -2.3940     0.2100 nz         1 C39      -0.807600
     24 C24         13.1550    -1.4850    -2.0640 c3         1 C39       0.110100
     25 O25         14.5500    -1.1890    -1.9700 oh         1 C39      -0.628800
     26 C26         12.9710    -2.8920    -2.6380 c3         1 C39      -0.085400
     27 C27         13.4740    -2.9230    -4.0830 c3         1 C39      -0.148700
     28 C28         13.4420    -4.3610    -4.6030 c3         1 C39      -0.088100
     29 C29         12.5880    -2.0590    -4.9420 c          1 C39       0.655100
     30 O30         11.6470    -1.4740    -4.4470 o          1 C39      -0.634100
     31 N31         12.8410    -1.9340    -6.2600 ns         1 C39      -0.566900
     32 C32         11.9800    -1.0930    -7.0950 c3         1 C39       0.105000
     33 C33         12.4830    -1.1250    -8.5400 c3         1 C39      -0.101400
     34 C34         11.5830    -0.2470    -9.4120 c3         1 C39      -0.079400
     35 C35         12.0860    -0.2780   -10.8570 c3         1 C39      -0.092100
     36 H1C1        -0.3610    -0.0010    -1.0210 h1         1 C39       0.033367
     37 H1C2        -0.3610     0.8850     0.5100 h1         1 C39       0.033367
     38 H1C3        -0.3610    -0.8840     0.5110 h1         1 C39       0.033367
     39 H3C1         1.6910    -0.8840     1.8440 h1         1 C39       0.023700
     40 H3C2         1.6920     0.8850     1.8440 h1         1 C39       0.023700
     41 H4C1         3.8550    -0.8850     0.6470 hc         1 C39       0.071700
     42 H4C2         3.8560     0.8840     0.6470 hc         1 C39       0.071700
     43 H5C1         3.8390     0.8840     3.1210 h1         1 C39       0.037700
     44 H5C2         3.8390    -0.8850     3.1200 h1         1 C39       0.037700
     45 H8           4.5510    -0.0000     4.8780 ha         1 C39       0.149000
     46 H9           5.8390    -0.0010     6.9740 ha         1 C39       0.142000
     47 H10          8.3010    -0.0010     6.9210 ha         1 C39       0.138000
     48 H11          9.4960    -0.0060     4.7710 ha         1 C39       0.118000
     49 H15         10.2680    -0.0830     3.1270 hn         1 C39       0.313500
     50 H161        10.2530    -0.9540     0.4670 h1         1 C39       0.054200
     51 H162        10.1190     0.8080     0.3850 h1         1 C39       0.054200
     52 H17         12.2890    -0.6940     1.8940 hc         1 C39       0.018700
     53 H18         11.6980     1.5520     2.7950 hc         1 C39       0.071700
     54 H211        12.3080     0.7190    -0.7960 hc         1 C39       0.093200
     55 H212        13.7610     0.1820     0.0580 hc         1 C39       0.093200
     56 H191        14.3000     1.7970     1.2790 hc         1 C39       0.043867
     57 H192        13.9250     2.3240     2.9250 hc         1 C39       0.043867
     58 H193        14.1110     0.6020     2.5690 hc         1 C39       0.043867
     59 H201        12.6400     2.6950     0.1620 hc         1 C39       0.043867
     60 H202        10.9320     2.3230     0.4300 hc         1 C39       0.043867
     61 H203        11.7540     3.5010     1.4630 hc         1 C39       0.043867
     62 H22         11.4660    -1.6400    -0.7450 hx         1 C39       0.130700
     63 H231        13.0720    -3.3110    -0.1780 hn         1 C39       0.455467
     64 H232        12.7430    -2.3650     1.1130 hn         1 C39       0.455467
     65 H24         12.6760    -0.7640    -2.7150 h1         1 C39       0.124700
     66 H25         14.7610    -0.4800    -2.5550 ho         1 C39       0.441000
     67 H261        11.9210    -3.1560    -2.6160 hc         1 C39       0.055200
     68 H262        13.5340    -3.6010    -2.0440 hc         1 C39       0.055200
     69 H27         14.4890    -2.5490    -4.1200 hc         1 C39       0.076700
     70 H281        13.5690    -5.0480    -3.7750 hc         1 C39       0.051700
     71 H282        12.4900    -4.5500    -5.0860 hc         1 C39       0.051700
     72 H283        14.2440    -4.5050    -5.3170 hc         1 C39       0.051700
     73 H31         13.6430    -2.3800    -6.6600 hn         1 C39       0.321500
     74 H321        12.0030    -0.0740    -6.7270 h1         1 C39       0.058700
     75 H322        10.9640    -1.4670    -7.0580 h1         1 C39       0.058700
     76 H331        13.4980    -0.7500    -8.5770 hc         1 C39       0.048200
     77 H332        12.4600    -2.1430    -8.9080 hc         1 C39       0.048200
     78 H341        10.5670    -0.6220    -9.3750 hc         1 C39       0.047200
     79 H342        11.6060     0.7720    -9.0440 hc         1 C39       0.047200
     80 H351        13.1030     0.0950   -10.8940 hc         1 C39       0.039033
     81 H352        11.4500     0.3460   -11.4740 hc         1 C39       0.039033
     82 H353        12.0610    -1.2960   -11.2270 hc         1 C39       0.039033
     83 H233        14.1460    -2.1760     0.2900 hn         1 C39       0.455467
@<TRIPOS>BOND
     1     1     2 1
     2     2     3 1
     3     3     4 1
     4     4     5 1
     5     5     6 1
     6     6     7 1
     7     7     8 ar
     8     8     9 ar
     9     9    10 ar
    10    10    11 ar
    11     7    12 ar
    12    11    12 ar
    13    12    13 1
    14    13    14 2
    15    13    15 1
    16    15    16 1
    17    16    17 1
    18    17    18 1
    19    18    19 1
    20    18    20 1
    21    17    21 1
    22    21    22 1
    23    22    23 1
    24    22    24 1
    25    24    25 1
    26    24    26 1
    27    26    27 1
    28    27    28 1
    29    27    29 1
    30    29    30 2
    31    29    31 1
    32    31    32 1
    33    32    33 1
    34    33    34 1
    35    34    35 1
    36     1    36 1
    37     1    37 1
    38     1    38 1
    39     3    39 1
    40     3    40 1
    41     4    41 1
    42     4    42 1
    43     5    43 1
    44     5    44 1
    45     8    45 1
    46     9    46 1
    47    10    47 1
    48    11    48 1
    49    15    49 1
    50    16    50 1
    51    16    51 1
    52    17    52 1
    53    18    53 1
    54    21    54 1
    55    21    55 1
    56    19    56 1
    57    19    57 1
    58    19    58 1
    59    20    59 1
    60    20    60 1
    61    20    61 1
    62    22    62 1
    63    23    63 1
    64    23    64 1
    65    24    65 1
    66    25    66 1
    67    26    67 1
    68    26    68 1
    69    27    69 1
    70    28    70 1
    71    28    71 1
    72    28    72 1
    73    31    73 1
    74    32    74 1
    75    32    75 1
    76    33    76 1
    77    33    77 1
    78    34    78 1
    79    34    79 1
    80    35    80 1
    81    35    81 1
    82    35    82 1
    83    83    23 1
@<TRIPOS>SUBSTRUCTURE
     1 C39         1 TEMP              0 ****  ****    0 ROOT
