@<TRIPOS>MOLECULE
C39
   83    83     1     0     0
SMALL
bcc


@<TRIPOS>ATOM
      1 C1           0.0000     0.0000     0.0000 c3         1 C39       0.255700
      2 O2           1.4290     0.0000     0.0000 os         1 C39      -0.415600
      3 C3           2.0110     0.0000     1.3060 c3         1 C39       0.217400
      4 C4           3.5360    -0.0000     1.1850 c3         1 C39      -0.040400
      5 C5           4.1580    -0.0010     2.5830 c3         1 C39       0.196400
      6 O6           5.5820    -0.0010     2.4690 os         1 C39      -0.260900
      7 C7           6.2920    -0.0010     3.6260 ca         1 C39       0.228100
      8 C8           5.6340    -0.0010     4.8470 ca         1 C39      -0.222000
      9 C9           6.3580    -0.0020     6.0230 ca         1 C39      -0.014000
     10 C10          7.7420    -0.0030     5.9930 ca         1 C39      -0.154000
     11 C11          8.4120    -0.0030     4.7890 ca         1 C39      -0.048000
     12 C12          7.6930    -0.0080     3.5920 ca         1 C39      -0.218600
     13 C13          8.4040    -0.0130     2.2990 c          1 C39       0.611700
     14 O14          7.7750    -0.0130     1.2590 o          1 C39      -0.617100
     15 N15          9.7510    -0.0200     2.2720 ns         1 C39      -0.235900
     16 C16         10.4580    -0.0260     0.9880 c3         1 C39       0.045000
     17 C17         11.9630     0.1000     1.2330 c3         1 C39      -0.075700
     18 C18         12.2640     1.4550     1.8760 c3         1 C39      -0.048700
     19 C19         13.7590     1.5510     2.1850 c3         1 C39      -0.005600
     20 C20         11.8690     2.5750     0.9130 c3         1 C39      -0.005600
     21 C21         12.7070    -0.0090    -0.1000 c3         1 C39      -0.050400
     22 C22         12.5230    -1.4150    -0.6730 c3         1 C39      -0.092500
     23 N23         13.1730    -2.3940     0.2100 nz         1 C39       0.054400
     24 C24         13.1550    -1.4850    -2.0640 c3         1 C39       0.149100
     25 O25         14.5500    -1.1890    -1.9700 oh         1 C39      -0.610800
     26 C26         12.9710    -2.8920    -2.6380 c3         1 C39      -0.034400
     27 C27         13.4740    -2.9230    -4.0830 c3         1 C39      -0.121700
     28 C28         13.4420    -4.3610    -4.6030 c3         1 C39       0.009900
     29 C29         12.5880    -2.0590    -4.9420 c          1 C39       0.564100
     30 O30         11.6470    -1.4740    -4.4470 o          1 C39      -0.673100
     31 N31         12.8410    -1.9340    -6.2600 ns         1 C39      -0.162900
     32 C32         11.9800    -1.0930    -7.0950 c3         1 C39       0.041000
     33 C33         12.4830    -1.1250    -8.5400 c3         1 C39      -0.042400
     34 C34         11.5830    -0.2470    -9.4120 c3         1 C39      -0.020400
     35 C35         12.0860    -0.2780   -10.8570 c3         1 C39       0.006900
     36 H1C1        -0.3610    -0.0010    -1.0210 h1         1 C39      -0.011300
     37 H1C2        -0.3610     0.8850     0.5100 h1         1 C39      -0.011300
     38 H1C3        -0.3610    -0.8840     0.5110 h1         1 C39      -0.011300
     39 H3C1         1.6910    -0.8840     1.8440 h1         1 C39      -0.010800
     40 H3C2         1.6920     0.8850     1.8440 h1         1 C39      -0.010800
     41 H4C1         3.8550    -0.8850     0.6470 hc         1 C39       0.036200
     42 H4C2         3.8560     0.8840     0.6470 hc         1 C39       0.036200
     43 H5C1         3.8390     0.8840     3.1210 h1         1 C39       0.002700
     44 H5C2         3.8390    -0.8850     3.1200 h1         1 C39       0.002700
     45 H8           4.5510    -0.0000     4.8780 ha         1 C39       0.131000
     46 H9           5.8390    -0.0010     6.9740 ha         1 C39       0.107000
     47 H10          8.3010    -0.0010     6.9210 ha         1 C39       0.112000
     48 H11          9.4960    -0.0060     4.7710 ha         1 C39       0.091000
     49 H15         10.2680    -0.0830     3.1270 hn         1 C39       0.185500
     50 H161        10.2530    -0.9540     0.4670 h1         1 C39       0.031700
     51 H162        10.1190     0.8080     0.3850 h1         1 C39       0.031700
     52 H17         12.2890    -0.6940     1.8940 hc         1 C39       0.000700
     53 H18         11.6980     1.5520     2.7950 hc         1 C39       0.045700
     54 H211        12.3080     0.7190    -0.7960 hc         1 C39       0.065700
     55 H212        13.7610     0.1820     0.0580 hc         1 C39       0.065700
     56 H191        14.3000     1.7970     1.2790 hc         1 C39       0.014033
     57 H192        13.9250     2.3240     2.9250 hc         1 C39       0.014033
     58 H193        14.1110     0.6020     2.5690 hc         1 C39       0.014033
     59 H201        12.6400     2.6950     0.1620 hc         1 C39       0.014033
     60 H202        10.9320     2.3230     0.4300 hc         1 C39       0.014033
     61 H203        11.7540     3.5010     1.4630 hc         1 C39       0.014033
     62 H22         11.4660    -1.6400    -0.7450 hx         1 C39       0.113700
     63 H231        13.0720    -3.3110    -0.1780 hn         1 C39       0.230133
     64 H232        12.7430    -2.3650     1.1130 hn         1 C39       0.230133
     65 H24         12.6760    -0.7640    -2.7150 h1         1 C39       0.093700
     66 H25         14.7610    -0.4800    -2.5550 ho         1 C39       0.433000
     67 H261        11.9210    -3.1560    -2.6160 hc         1 C39       0.027200
     68 H262        13.5340    -3.6010    -2.0440 hc         1 C39       0.027200
     69 H27         14.4890    -2.5490    -4.1200 hc         1 C39       0.046700
     70 H281        13.5690    -5.0480    -3.7750 hc         1 C39       0.016367
     71 H282        12.4900    -4.5500    -5.0860 hc         1 C39       0.016367
     72 H283        14.2440    -4.5050    -5.3170 hc         1 C39       0.016367
     73 H31         13.6430    -2.3800    -6.6600 hn         1 C39       0.180500
     74 H321        12.0030    -0.0740    -6.7270 h1         1 C39       0.032200
     75 H322        10.9640    -1.4670    -7.0580 h1         1 C39       0.032200
     76 H331        13.4980    -0.7500    -8.5770 hc         1 C39       0.019200
     77 H332        12.4600    -2.1430    -8.9080 hc         1 C39       0.019200
     78 H341        10.5670    -0.6220    -9.3750 hc         1 C39       0.017700
     79 H342        11.6060     0.7720    -9.0440 hc         1 C39       0.017700
     80 H351        13.1030     0.0950   -10.8940 hc         1 C39       0.005367
     81 H352        11.4500     0.3460   -11.4740 hc         1 C39       0.005367
     82 H353        12.0610    -1.2960   -11.2270 hc         1 C39       0.005367
     83 H233        14.1460    -2.1760     0.2900 hn         1 C39       0.230133
@<TRIPOS>BOND
     1     1     2 1   
     2     1    36 1   
     3     1    37 1   
     4     1    38 1   
     5     2     3 1   
     6     3     4 1   
     7     3    39 1   
     8     3    40 1   
     9     4     5 1   
    10     4    41 1   
    11     4    42 1   
    12     5     6 1   
    13     5    43 1   
    14     5    44 1   
    15     6     7 1   
    16     7     8 ar  
    17     7    12 ar  
    18     8     9 ar  
    19     8    45 1   
    20     9    10 ar  
    21     9    46 1   
    22    10    11 ar  
    23    10    47 1   
    24    11    12 ar  
    25    11    48 1   
    26    12    13 1   
    27    13    14 2   
    28    13    15 1   
    29    15    16 1   
    30    15    49 1   
    31    16    17 1   
    32    16    50 1   
    33    16    51 1   
    34    17    18 1   
    35    17    21 1   
    36    17    52 1   
    37    18    19 1   
    38    18    20 1   
    39    18    53 1   
    40    19    56 1   
    41    19    57 1   
    42    19    58 1   
    43    20    59 1   
    44    20    60 1   
    45    20    61 1   
    46    21    22 1   
    47    21    54 1   
    48    21    55 1   
    49    22    23 1   
    50    22    24 1   
    51    22    62 1   
    52    23    63 1   
    53    23    64 1   
    54    23    83 1   
    55    24    25 1   
    56    24    26 1   
    57    24    65 1   
    58    25    66 1   
    59    26    27 1   
    60    26    67 1   
    61    26    68 1   
    62    27    28 1   
    63    27    29 1   
    64    27    69 1   
    65    28    70 1   
    66    28    71 1   
    67    28    72 1   
    68    29    30 2   
    69    29    31 1   
    70    31    32 1   
    71    31    73 1   
    72    32    33 1   
    73    32    74 1   
    74    32    75 1   
    75    33    34 1   
    76    33    76 1   
    77    33    77 1   
    78    34    35 1   
    79    34    78 1   
    80    34    79 1   
    81    35    80 1   
    82    35    81 1   
    83    35    82 1   
@<TRIPOS>SUBSTRUCTURE
     1 C39         1 TEMP              0 ****  ****    0 ROOT
