@<TRIPOS>MOLECULE
C3A
   78    82     1     0     0
SMALL
bcc


@<TRIPOS>ATOM
      1 C2         -1.0280    2.6130   -0.8280 c2        1 C3A     -0.269200
      2 C5         -2.8160    1.5980    1.5110 c         1 C3A      0.622100
      3 C1         -0.4280    3.8020   -0.7740 c2        1 C3A     -0.118000
      4 C3         -0.8160    1.5570    0.1850 c3        1 C3A      0.195600
      5 O4         -2.1020    0.9600    0.5710 os        1 C3A     -0.404900
      6 O6         -2.4660    2.5430    2.2020 o         1 C3A     -0.419000
      7 C8         -4.8020    1.1720    2.9980 c3        1 C3A      0.036500
      8 C9         -5.5010   -0.0970    3.4990 c3        1 C3A     -0.110400
      9 N7         -4.1630    0.9460    1.6480 n4        1 C3A     -0.646800
     10 C10        -4.5210   -1.1930    3.8670 c3        1 C3A     -0.083400
     11 C11        -5.2370   -2.3610    4.5170 c3        1 C3A     -0.091700
     12 C12        -4.2520   -3.3820    5.0950 c3        1 C3A     -0.102400
     13 C13        -4.7780   -4.7560    4.6450 c3        1 C3A      0.144800
     14 N14        -5.7550   -4.5710    3.5770 n3        1 C3A     -0.791200
     15 C15        -6.1150   -3.1610    3.5230 c3        1 C3A      0.154800
     16 C16        -5.8280    2.3150    2.9290 c         1 C3A      0.509600
     17 O17        -6.3370    2.6400    1.8580 o         1 C3A     -0.459100
     18 C18        -6.1410    2.9690    4.2120 cc        1 C3A      0.438500
     19 N19        -5.5510    2.7200    5.4170 nd        1 C3A     -0.294300
     20 O20        -6.0860    3.5240    6.2840 os        1 C3A     -0.099100
     21 C21        -7.0670    4.3400    5.6170 cd        1 C3A      0.514700
     22 C22        -7.7360    5.3580    6.4560 c3        1 C3A     -0.082400
     23 C23        -9.2130    5.4010    6.2580 ca        1 C3A     -0.031300
     24 C24        -9.7580    5.9730    5.0980 ca        1 C3A     -0.107000
     25 C25       -11.1370    6.0810    4.9470 ca        1 C3A     -0.067500
     26 C26       -11.9880    5.6090    5.9560 ca        1 C3A     -0.194600
     27 C27       -11.4480    5.0100    7.1060 ca        1 C3A     -0.067500
     28 C28       -10.0660    4.9160    7.2550 ca        1 C3A     -0.107000
     29 C29       -13.4530    5.6700    5.8620 c         1 C3A      0.562700
     30 O30       -14.2590    4.8880    6.3450 o         1 C3A     -0.402100
     31 N31       -14.0100    6.8630    5.1150 n4        1 C3A     -0.675800
     32 C32       -15.4910    7.0820    5.3050 c3        1 C3A      0.125500
     33 C33       -15.8850    8.5360    4.9180 c3        1 C3A     -0.045600
     34 C34       -16.5330    8.4060    3.5830 ca        1 C3A     -0.128300
     35 C35       -16.9060    9.4120    2.7080 ca        1 C3A     -0.093500
     36 C36       -17.5380    9.0540    1.5080 ca        1 C3A     -0.106000
     37 C37       -17.7870    7.7180    1.2040 ca        1 C3A     -0.106000
     38 C38       -17.4120    6.6980    2.0900 ca        1 C3A     -0.093500
     39 C39       -16.7860    7.0490    3.2740 ca        1 C3A     -0.128300
     40 C40       -16.3290    6.1590    4.3780 c3        1 C3A     -0.045600
     41 N41        -7.1160    4.0030    4.3310 nc        1 C3A     -0.621000
     42 H2         -1.6770    2.3280   -1.6730 ha        1 C3A      0.149000
     43 H11A        0.2340    4.1050    0.0510 ha        1 C3A      0.138500
     44 H12        -0.5510    4.5510   -1.5710 ha        1 C3A      0.138500
     45 H31A       -0.2910    1.9160    1.1080 h1        1 C3A      0.104200
     46 H32A       -0.3060    0.6510   -0.2520 h1        1 C3A      0.104200
     47 H8         -3.9690    1.4560    3.7160 hx        1 C3A      0.156700
     48 H91        -6.0880    0.1890    4.4160 hc        1 C3A      0.093200
     49 H92        -6.2390   -0.4710    2.7400 hc        1 C3A      0.093200
     50 HN7        -4.7760    1.3320    0.9090 hn        1 C3A      0.484800
     51 H101       -3.7580   -0.7910    4.5860 hc        1 C3A      0.048700
     52 H102       -3.9710   -1.5590    2.9600 hc        1 C3A      0.048700
     53 H11        -5.8900   -1.9710    5.3430 hc        1 C3A      0.066700
     54 H121       -4.2160   -3.3200    6.2090 hc        1 C3A      0.056200
     55 H122       -3.2180   -3.2110    4.7080 hc        1 C3A      0.056200
     56 H131       -5.3080   -5.2610    5.4990 h1        1 C3A      0.065200
     57 H132       -3.9330   -5.4220    4.3240 h1        1 C3A      0.065200
     58 H14        -5.3890   -4.8810    2.6970 hn        1 C3A      0.359800
     59 H151       -6.0200   -2.7470    2.4820 h1        1 C3A      0.038200
     60 H152       -7.1960   -3.0790    3.8250 h1        1 C3A      0.038200
     61 H221       -7.4880    5.1470    7.5360 hc        1 C3A      0.114700
     62 H222       -7.2910    6.3640    6.1980 hc        1 C3A      0.114700
     63 H24        -9.0890    6.3350    4.2980 ha        1 C3A      0.171500
     64 H25       -11.5320    6.5190    4.0170 ha        1 C3A      0.158000
     65 H27       -12.1180    4.6140    7.8890 ha        1 C3A      0.158000
     66 H28        -9.6520    4.4560    8.1680 ha        1 C3A      0.171500
     67 H31       -13.8280    6.7330    4.1130 hn        1 C3A      0.459300
     68 H32       -15.7150    6.8730    6.3880 hx        1 C3A      0.120700
     69 H331      -16.6240    8.9110    5.6770 hc        1 C3A      0.088450
     70 H332      -15.0240    9.2500    4.9050 hc        1 C3A      0.088450
     71 H35       -16.7240   10.4710    2.9450 ha        1 C3A      0.151000
     72 H36       -17.8460    9.8440    0.8040 ha        1 C3A      0.158000
     73 H37       -18.2920    7.4550    0.2600 ha        1 C3A      0.158000
     74 H38       -17.6240    5.6460    1.8480 ha        1 C3A      0.151000
     75 H401      -15.7610    5.2680    4.0110 hc        1 C3A      0.088450
     76 H402      -17.2080    5.7760    4.9650 hc        1 C3A      0.088450
     77 H72        -4.0560   -0.0660    1.4830 hn        1 C3A      0.484800
     78 H312      -13.5050    7.7000    5.4270 hn        1 C3A      0.459300
@<TRIPOS>BOND
     1    1    3 2
     2    1    4 1
     3    1   42 1
     4    2    5 1
     5    2    6 2
     6    2    9 1
     7    3   43 1
     8    3   44 1
     9    4    5 1
    10    4   45 1
    11    4   46 1
    12    7    8 1
    13    7    9 1
    14    7   16 1
    15    7   47 1
    16    8   10 1
    17    8   48 1
    18    8   49 1
    19    9   50 1
    20    9   77 1
    21   10   11 1
    22   10   51 1
    23   10   52 1
    24   11   12 1
    25   11   15 1
    26   11   53 1
    27   12   13 1
    28   12   54 1
    29   12   55 1
    30   13   14 1
    31   13   56 1
    32   13   57 1
    33   14   15 1
    34   14   58 1
    35   15   59 1
    36   15   60 1
    37   16   17 2
    38   16   18 1
    39   18   19 2
    40   18   41 1
    41   19   20 1
    42   20   21 1
    43   21   22 1
    44   21   41 2
    45   22   23 1
    46   22   61 1
    47   22   62 1
    48   23   24 ar
    49   23   28 ar
    50   24   25 ar
    51   24   63 1
    52   25   26 ar
    53   25   64 1
    54   26   27 ar
    55   26   29 1
    56   27   28 ar
    57   27   65 1
    58   28   66 1
    59   29   30 2
    60   29   31 1
    61   31   32 1
    62   31   67 1
    63   31   78 1
    64   32   33 1
    65   32   40 1
    66   32   68 1
    67   33   34 1
    68   33   69 1
    69   33   70 1
    70   34   35 ar
    71   34   39 ar
    72   35   36 ar
    73   35   71 1
    74   36   37 ar
    75   36   72 1
    76   37   38 ar
    77   37   73 1
    78   38   39 ar
    79   38   74 1
    80   39   40 1
    81   40   75 1
    82   40   76 1
@<TRIPOS>SUBSTRUCTURE
     1 C3A         1 TEMP              0 ****  ****    0 ROOT
