@<TRIPOS>MOLECULE
C3B
   35    36     1     0     0
SMALL
bcc


@<TRIPOS>ATOM
      1 C1'          0.0000     0.0000     0.0000 c3         1 C3B       0.209500
      2 C2'          1.5310     0.0000     0.0000 c3         1 C3B       0.112100
      3 O2'          2.0090    -1.1670    -0.6710 oh         1 C3B      -0.599800
      4 C3'          2.0350     0.0000     1.4460 c3         1 C3B       0.156100
      5 O3'          3.4610     0.0750     1.4570 oh         1 C3B      -0.577800
      6 C4'          1.4520     1.2140     2.1770 c3         1 C3B       0.136100
      7 O4'          1.8570     1.1860     3.5470 oh         1 C3B      -0.573800
      8 C5'         -0.0750     1.1670     2.0940 c3         1 C3B       0.174100
      9 O5'         -0.4750     1.1390     0.7220 os         1 C3B      -0.375600
     10 C6'         -0.6610     2.4090     2.7690 c3         1 C3B       0.226400
     11 O6'         -2.0870     2.3100     2.7940 oh         1 C3B      -0.593800
     12 N1          -0.4880     0.0580    -1.3800 n          1 C3B       0.152000
     13 C2          -0.2470     1.1480    -2.1300 c          1 C3B       0.673900
     14 O2           0.3800     2.0800    -1.6520 o          1 C3B      -0.574500
     15 N3          -0.6790     1.2270    -3.3880 nc         1 C3B      -0.480100
     16 C4          -1.3620     0.2290    -3.9340 cd         1 C3B       0.263500
     17 N4          -1.8020     0.3210    -5.2330 nz         1 C3B       0.202400
     18 C5          -1.6320    -0.9280    -3.1740 cd         1 C3B      -0.384600
     19 C6          -1.1810    -0.9950    -1.8980 cc         1 C3B       0.009600
     20 H1'         -0.3590    -0.9040     0.4780 h2         1 C3B       0.045700
     21 H2'          1.8920     0.8870    -0.5070 h1         1 C3B       0.062700
     22 HO2'         2.8090    -0.9630    -1.1270 ho         1 C3B       0.420000
     23 H3'          1.7110    -0.9080     1.9410 h1         1 C3B       0.026700
     24 HO3'         3.8090    -0.6260     1.9840 ho         1 C3B       0.412000
     25 H4'          1.8110     2.1230     1.7080 h1         1 C3B       0.035700
     26 HO4'         2.5140     1.8460     3.6950 ho         1 C3B       0.410000
     27 H5'         -0.4350     0.2750     2.5920 h1         1 C3B       0.032700
     28 H6'         -0.3700     3.2930     2.2150 h1         1 C3B       0.010200
     29 H6'A        -0.2860     2.4800     3.7830 h1         1 C3B       0.010200
     30 HO6'        -2.4360     2.9480     3.3930 ho         1 C3B       0.403000
     31 HN4         -1.5580     1.2180    -5.6050 hn         1 C3B       0.221467
     32 HN4A        -2.7960     0.2090    -5.2570 hn         1 C3B       0.221467
     33 H5          -2.1860    -1.7520    -3.6050 ha         1 C3B       0.151000
     34 H6          -1.3760    -1.8730    -1.2930 h4         1 C3B       0.160000
     35 H43         -1.3730    -0.3960    -5.7830 hn         1 C3B       0.221467
@<TRIPOS>BOND
     1     1     2 1   
     2     1     9 1   
     3     1    12 1   
     4     1    20 1   
     5     2     3 1   
     6     2     4 1   
     7     2    21 1   
     8     3    22 1   
     9     4     5 1   
    10     4     6 1   
    11     4    23 1   
    12     5    24 1   
    13     6     7 1   
    14     6     8 1   
    15     6    25 1   
    16     7    26 1   
    17     8     9 1   
    18     8    10 1   
    19     8    27 1   
    20    10    11 1   
    21    10    28 1   
    22    10    29 1   
    23    11    30 1   
    24    12    13 1   
    25    12    19 1   
    26    13    14 2   
    27    13    15 1   
    28    15    16 2   
    29    16    17 1   
    30    16    18 1   
    31    17    31 1   
    32    17    32 1   
    33    17    35 1   
    34    18    19 2   
    35    18    33 1   
    36    19    34 1   
@<TRIPOS>SUBSTRUCTURE
     1 C3B         1 TEMP              0 ****  ****    0 ROOT
