@<TRIPOS>MOLECULE
molecule
   35    36     1     0     0
SMALL
bcc


@<TRIPOS>ATOM
      1 C1'          0.0000     0.0000     0.0000 c3         1 C3B       0.311500
      2 C2'          1.5310     0.0000     0.0000 c3         1 C3B       0.088100
      3 O2'          2.0090    -1.1670    -0.6710 oh         1 C3B      -0.614800
      4 C3'          2.0350     0.0000     1.4460 c3         1 C3B       0.116100
      5 O3'          3.4610     0.0750     1.4570 oh         1 C3B      -0.594800
      6 C4'          1.4520     1.2140     2.1770 c3         1 C3B       0.099100
      7 O4'          1.8570     1.1860     3.5470 oh         1 C3B      -0.593800
      8 C5'         -0.0750     1.1670     2.0940 c3         1 C3B       0.149100
      9 O5'         -0.4750     1.1390     0.7220 os         1 C3B      -0.394600
     10 C6'         -0.6610     2.4090     2.7690 c3         1 C3B       0.153400
     11 O6'         -2.0870     2.3100     2.7940 oh         1 C3B      -0.607800
     12 N1          -0.4880     0.0580    -1.3800 n          1 C3B      -0.303000
     13 C2          -0.2470     1.1480    -2.1300 c          1 C3B       0.828900
     14 O2           0.3800     2.0800    -1.6520 o          1 C3B      -0.527500
     15 N3          -0.6790     1.2270    -3.3880 nc         1 C3B      -0.633100
     16 C4          -1.3620     0.2290    -3.9340 cd         1 C3B       0.571500
     17 N4          -1.8020     0.3210    -5.2330 nz         1 C3B      -0.740600
     18 C5          -1.6320    -0.9280    -3.1740 cd         1 C3B      -0.437600
     19 C6          -1.1810    -0.9950    -1.8980 cc         1 C3B       0.146600
     20 H1'         -0.3590    -0.9040     0.4780 h2         1 C3B       0.079700
     21 H2'          1.8920     0.8870    -0.5070 h1         1 C3B       0.093700
     22 HO2'         2.8090    -0.9630    -1.1270 ho         1 C3B       0.432000
     23 H3'          1.7110    -0.9080     1.9410 h1         1 C3B       0.062700
     24 HO3'         3.8090    -0.6260     1.9840 ho         1 C3B       0.426000
     25 H4'          1.8110     2.1230     1.7080 h1         1 C3B       0.070700
     26 HO4'         2.5140     1.8460     3.6950 ho         1 C3B       0.425000
     27 H5'         -0.4350     0.2750     2.5920 h1         1 C3B       0.067700
     28 H6'         -0.3700     3.2930     2.2150 h1         1 C3B       0.050200
     29 H6'A        -0.2860     2.4800     3.7830 h1         1 C3B       0.050200
     30 HO6'        -2.4360     2.9480     3.3930 ho         1 C3B       0.416000
     31 HN4         -1.5580     1.2180    -5.6050 hn         1 C3B       0.476800
     32 HN4A        -2.7960     0.2090    -5.2570 hn         1 C3B       0.476800
     33 H5          -2.1860    -1.7520    -3.6050 ha         1 C3B       0.173000
     34 H6          -1.3760    -1.8730    -1.2930 h4         1 C3B       0.204000
     35 H43         -1.3730    -0.3960    -5.7830 hn         1 C3B       0.476800
@<TRIPOS>BOND
     1     1     2 1
     2     1     9 1
     3     1    12 1
     4     2     3 1
     5     2     4 1
     6     4     5 1
     7     4     6 1
     8     6     7 1
     9     6     8 1
    10     8     9 1
    11     8    10 1
    12    10    11 1
    13    12    13 1
    14    12    19 1
    15    13    14 2
    16    13    15 1
    17    15    16 2
    18    16    17 1
    19    16    18 1
    20    18    19 2
    21     1    20 1
    22     2    21 1
    23     3    22 1
    24     4    23 1
    25     5    24 1
    26     6    25 1
    27     7    26 1
    28     8    27 1
    29    10    28 1
    30    10    29 1
    31    11    30 1
    32    17    31 1
    33    17    32 1
    34    18    33 1
    35    19    34 1
    36    35    17 1
@<TRIPOS>SUBSTRUCTURE
     1 C3B         1 TEMP              0 ****  ****    0 ROOT
