@<TRIPOS>MOLECULE
molecule
   62    66     1     0     0
SMALL
bcc


@<TRIPOS>ATOM
      1 C1           0.0000     0.0000     0.0000 c3         1 C3D       0.041900
      2 C2           1.5610     0.0000     0.0000 c3         1 C3D      -0.014400
      3 C3           2.1190     0.0000     1.4320 c3         1 C3D      -0.071400
      4 C4           1.6640    -1.2480     2.1870 c3         1 C3D      -0.034100
      5 C5           0.2020    -1.5720     2.0180 ca         1 C3D      -0.063300
      6 C6          -0.3810    -2.5020     2.8930 ca         1 C3D      -0.158000
      7 C7          -1.7170    -2.8770     2.7510 ca         1 C3D       0.104100
      8 C8          -2.4830    -2.3370     1.7250 ca         1 C3D      -0.153000
      9 C9          -1.9150    -1.4200     0.8420 ca         1 C3D      -0.106000
     10 C10         -0.5710    -1.0260     0.9750 ca         1 C3D      -0.082300
     11 C11          2.1630     1.0530    -0.9190 ca         1 C3D      -0.073300
     12 C12          2.2580     0.8070    -2.2860 ca         1 C3D      -0.122500
     13 C13          2.8090     1.7720    -3.1290 ca         1 C3D      -0.128000
     14 C14          3.2660     2.9800    -2.6010 ca         1 C3D      -0.131000
     15 C15          3.1700     3.2220    -1.2300 ca         1 C3D      -0.128000
     16 C16          2.6180     2.2580    -0.3880 ca         1 C3D      -0.122500
     17 C17         -0.6280     1.3830     0.1800 ca         1 C3D      -0.106300
     18 C18         -0.8240     2.1950    -0.9290 ca         1 C3D      -0.087500
     19 C19         -1.3960     3.4570    -0.7650 ca         1 C3D      -0.179500
     20 C20         -1.7670     3.8950     0.5060 ca         1 C3D       0.134100
     21 C21         -1.5650     3.0720     1.6140 ca         1 C3D      -0.179500
     22 C22         -0.9920     1.8100     1.4500 ca         1 C3D      -0.087500
     23 C24         -1.9330     6.1410    -0.2600 c3         1 C3D       0.139400
     24 C25         -1.9920     7.4950     0.4220 c3         1 C3D       0.140800
     25 C27         -0.9780     9.9290    -0.1170 c3         1 C3D       0.136300
     26 C28         -0.8990    10.8530    -1.3240 c3         1 C3D      -0.086900
     27 O7          -2.2670    -3.7770     3.6120 oh         1 C3D      -0.522100
     28 O23         -2.3230     5.1270     0.6650 os         1 C3D      -0.344900
     29 N26         -1.3710     8.6500    -0.7110 n3         1 C3D      -0.696600
     30 C29         -1.8390    10.2390    -2.3570 c3         1 C3D      -0.086900
     31 C30         -2.4020     8.9910    -1.6930 c3         1 C3D       0.136300
     32 H1          -0.2930    -0.3360    -0.9870 hc         1 C3D       0.054700
     33 H2           1.8500    -0.9560    -0.4210 hc         1 C3D       0.049700
     34 H31          3.2010    -0.0040     1.3810 hc         1 C3D       0.051200
     35 H32          1.7410     0.8730     1.9500 hc         1 C3D       0.051200
     36 H41          1.8480    -1.0840     3.2420 hc         1 C3D       0.053700
     37 H42          2.2360    -2.0890     1.8140 hc         1 C3D       0.053700
     38 H6           0.2110    -2.9270     3.6950 ha         1 C3D       0.139000
     39 H8          -3.5210    -2.6260     1.6120 ha         1 C3D       0.142000
     40 H9          -2.5180    -1.0020     0.0450 ha         1 C3D       0.138000
     41 H12          1.9030    -0.1320    -2.6950 ha         1 C3D       0.133000
     42 H13          2.8840     1.5830    -4.1930 ha         1 C3D       0.130500
     43 H14          3.6950     3.7300    -3.2550 ha         1 C3D       0.130000
     44 H15          3.5240     4.1600    -0.8200 ha         1 C3D       0.130500
     45 H16          2.5430     2.4450     0.6760 ha         1 C3D       0.133000
     46 H18         -0.5350     1.8510    -1.9150 ha         1 C3D       0.139500
     47 H19         -1.5530     4.0960    -1.6260 ha         1 C3D       0.139000
     48 H21         -1.8520     3.4120     2.6010 ha         1 C3D       0.139000
     49 H22         -0.8340     1.1680     2.3080 ha         1 C3D       0.139500
     50 H241        -2.5580     6.1530    -1.1440 h1         1 C3D       0.046200
     51 H242        -0.9100     5.9240    -0.5440 h1         1 C3D       0.046200
     52 H251        -3.0090     7.6960     0.7380 h1         1 C3D       0.054700
     53 H252        -1.3400     7.4930     1.2870 h1         1 C3D       0.054700
     54 H272        -1.7320    10.2740     0.5800 h1         1 C3D       0.042700
     55 H281         0.1130    10.8820    -1.7080 hc         1 C3D       0.048700
     56 H282        -1.2360    11.8470    -1.0570 hc         1 C3D       0.048700
     57 HO7         -2.6060    -3.3240     4.3660 ho         1 C3D       0.418000
     58 H291        -1.2880     9.9710    -3.2510 hc         1 C3D       0.048700
     59 H292        -2.6380    10.9300    -2.5940 hc         1 C3D       0.048700
     60 H301        -2.4710     8.2240    -2.4550 h1         1 C3D       0.042700
     61 H302        -3.3570     9.1450    -1.2060 h1         1 C3D       0.042700
     62 H271        -0.0100     9.8450     0.3630 h1         1 C3D       0.042700
@<TRIPOS>BOND
     1     1    17 1
     2     1    10 1
     3     1     2 1
     4     1    32 1
     5     2     3 1
     6     2    11 1
     7     2    33 1
     8     3     4 1
     9     3    34 1
    10     3    35 1
    11     4     5 1
    12     4    36 1
    13     4    37 1
    14     5     6 ar
    15     5    10 ar
    16     6     7 ar
    17     6    38 1
    18     7    27 1
    19     7     8 ar
    20     8     9 ar
    21     8    39 1
    22     9    10 ar
    23     9    40 1
    24    11    16 ar
    25    11    12 ar
    26    12    13 ar
    27    12    41 1
    28    13    14 ar
    29    13    42 1
    30    14    15 ar
    31    14    43 1
    32    15    16 ar
    33    15    44 1
    34    16    45 1
    35    17    18 ar
    36    17    22 ar
    37    18    19 ar
    38    18    46 1
    39    19    20 ar
    40    19    47 1
    41    20    28 1
    42    20    21 ar
    43    21    22 ar
    44    21    48 1
    45    22    49 1
    46    23    24 1
    47    23    28 1
    48    23    50 1
    49    23    51 1
    50    24    29 1
    51    24    52 1
    52    24    53 1
    53    25    26 1
    54    25    29 1
    55    25    62 1
    56    25    54 1
    57    26    30 1
    58    26    55 1
    59    26    56 1
    60    27    57 1
    61    29    31 1
    62    30    31 1
    63    30    58 1
    64    30    59 1
    65    31    60 1
    66    31    61 1
@<TRIPOS>SUBSTRUCTURE
     1 C3D         1 TEMP              0 ****  ****    0 ROOT
