@<TRIPOS>MOLECULE
C3F
   41    43     1     0     0
SMALL
bcc


@<TRIPOS>ATOM
      1 O4           0.0000     0.0000     0.0000 o          1 C3F      -0.638500
      2 C4           1.2160     0.0000     0.0000 c          1 C3F       0.531000
      3 N3           1.9210     0.0000     1.1550 ns         1 C3F      -0.179500
      4 C2           3.2620     0.0000     1.1530 c          1 C3F       0.735900
      5 O2           3.8350     0.0010     2.2280 o          1 C3F      -0.656500
      6 N1           4.0050     0.0010     0.0490 nc         1 C3F      -0.373400
      7 C4A          1.9880    -0.0070    -1.2620 cd         1 C3F       0.205800
      8 C10          3.4570     0.0000    -1.1540 cd         1 C3F      -0.112600
      9 N5           1.4080    -0.0140    -2.4350 nc         1 C3F      -0.392000
     10 C5A          2.1380    -0.0210    -3.5590 ca         1 C3F       0.246600
     11 C6           1.4940    -0.0280    -4.8120 ca         1 C3F      -0.074300
     12 C7           2.2330    -0.0350    -5.9560 ca         1 C3F      -0.131300
     13 C7M          1.5370    -0.0430    -7.2930 c3         1 C3F       0.066200
     14 C8           3.6240    -0.0340    -5.9040 ca         1 C3F      -0.007300
     15 C8M          4.4180    -0.0420    -7.1850 c3         1 C3F       0.049200
     16 C9           4.2800    -0.0270    -4.6940 ca         1 C3F      -0.157000
     17 C9A          3.5500    -0.0200    -3.5080 ca         1 C3F      -0.169600
     18 N10          4.2030    -0.0010    -2.2940 na         1 C3F       0.400900
     19 C1'          5.6660     0.0000    -2.2310 c3         1 C3F      -0.071700
     20 C2'          6.1770    -1.4420    -2.2080 c3         1 C3F      -0.064400
     21 C3'          7.7060    -1.4410    -2.1420 c3         1 C3F       0.082000
     22 C5'          9.5180    -3.0680    -2.0620 c          1 C3F       0.978600
     23 N1'          8.1940    -2.8220    -2.1200 ns         1 C3F      -0.307900
     24 O2'          9.9670    -4.3360    -2.0420 o          1 C3F      -0.917800
     25 O1'         10.3060    -2.1430    -2.0290 o          1 C3F      -0.917800
     26 H3           1.4320    -0.0000     2.0280 hn         1 C3F       0.198500
     27 H6           0.4130     0.0100    -4.8660 ha         1 C3F       0.122000
     28 H7M1         0.4650    -0.0750    -7.1410 hc         1 C3F       0.009033
     29 H7M2         1.8480    -0.9140    -7.8570 hc         1 C3F       0.009033
     30 H7M3         1.7980     0.8540    -7.8410 hc         1 C3F       0.009033
     31 H8M1         4.1230     0.8020    -7.7970 hc         1 C3F       0.016700
     32 H8M2         4.2280    -0.9630    -7.7230 hc         1 C3F       0.016700
     33 H8M3         5.4740     0.0310    -6.9550 hc         1 C3F       0.016700
     34 H9           5.3630    -0.0260    -4.6640 ha         1 C3F       0.147000
     35 H1'1         5.9890     0.5120    -1.3330 h1         1 C3F       0.057200
     36 H1'2         6.0650     0.5100    -3.1000 h1         1 C3F       0.057200
     37 H2'1         5.8540    -1.9540    -3.1060 hc         1 C3F       0.023700
     38 H2'2         5.7780    -1.9520    -1.3390 hc         1 C3F       0.023700
     39 H3'1         8.1040    -0.9310    -3.0110 h1         1 C3F       0.006200
     40 H3'2         8.0280    -0.9300    -1.2430 h1         1 C3F       0.006200
     41 H1'          7.5450    -3.5830    -2.1370 hn         1 C3F       0.156500
@<TRIPOS>BOND
     1     1     2 2   
     2     2     3 1   
     3     2     7 1   
     4     3     4 1   
     5     3    26 1   
     6     4     5 2   
     7     4     6 1   
     8     6     8 2   
     9     7     8 1   
    10     7     9 2   
    11     8    18 1   
    12     9    10 1   
    13    10    11 ar  
    14    10    17 ar  
    15    11    12 ar  
    16    11    27 1   
    17    12    13 1   
    18    12    14 ar  
    19    13    28 1   
    20    13    29 1   
    21    13    30 1   
    22    14    15 1   
    23    14    16 ar  
    24    15    31 1   
    25    15    32 1   
    26    15    33 1   
    27    16    17 ar  
    28    16    34 1   
    29    17    18 1   
    30    18    19 1   
    31    19    20 1   
    32    19    35 1   
    33    19    36 1   
    34    20    21 1   
    35    20    37 1   
    36    20    38 1   
    37    21    23 1   
    38    21    39 1   
    39    21    40 1   
    40    22    23 1   
    41    22    24 1   
    42    22    25 1   
    43    23    41 1   
@<TRIPOS>SUBSTRUCTURE
     1 C3F         1 TEMP              0 ****  ****    0 ROOT
