@<TRIPOS>MOLECULE
C3G
   34    35     1     0     0
SMALL
bcc


@<TRIPOS>ATOM
      1 C10          0.0000     0.0000     0.0000 c          1 C3G       0.976600
      2 C15          2.2050     1.7150     5.6370 ca         1 C3G      -0.189000
      3 C17          0.5060     3.4020     5.6630 ca         1 C3G      -0.513200
      4 C02          3.8280     0.0000     0.0000 c3         1 C3G       0.142100
      5 C03          3.9710     0.0000     1.5250 c3         1 C3G       0.143100
      6 C05          2.8960     0.9070     2.1320 c3         1 C3G       0.354900
      7 C07          1.3970     0.4730     0.3100 c3         1 C3G       0.065100
      8 C08          2.4120    -0.4500    -0.3690 c3         1 C3G       0.163100
      9 C14          2.1690     1.7010     4.2500 ca         1 C3G       0.234100
     10 C16          1.3720     2.5630     6.3400 ca         1 C3G       0.027000
     11 C18          0.4640     3.3870     4.2810 ca         1 C3G       0.027000
     12 C19          1.2960     2.5390     3.5730 ca         1 C3G      -0.189000
     13 O01          4.7800    -0.8990    -0.5710 oh         1 C3G      -0.590800
     14 O04          5.2650     0.4880     1.8840 oh         1 C3G      -0.590800
     15 O06          1.6050     0.4500     1.7230 os         1 C3G      -0.382600
     16 O09          2.2440    -0.3850    -1.7860 oh         1 C3G      -0.545800
     17 O11         -0.7100    -0.4090     0.8880 o          1 C3G      -0.868300
     18 O12         -0.4560     0.0370    -1.2620 o          1 C3G      -0.868300
     19 O13          2.9880     0.8670     3.5560 os         1 C3G      -0.293900
     20 O21         -0.3560     4.3180     7.6360 o          1 C3G      -0.471000
     21 O22         -1.1500     5.0490     5.8230 o          1 C3G      -0.471000
     22 H2           3.9980     1.0010    -0.3780 h1         1 C3G       0.016700
     23 H3           3.8430    -1.0090     1.8990 h1         1 C3G       0.029700
     24 H4           3.0450     1.9220     1.7840 h2         1 C3G       0.004700
     25 H5           1.5300     1.4840    -0.0560 h1         1 C3G       0.012700
     26 H6           2.2570    -1.4670    -0.0280 h1         1 C3G       0.021700
     27 H7           1.4010     2.5760     7.4230 ha         1 C3G       0.125000
     28 H8          -0.2160     4.0430     3.7530 ha         1 C3G       0.125000
     29 H9           1.2640     2.5290     2.4900 ha         1 C3G       0.139000
     30 H10          5.3680    -0.4210    -1.1320 ho         1 C3G       0.389000
     31 H11          5.7280    -0.1740     2.3690 ho         1 C3G       0.392000
     32 H12          2.2810    -1.2550    -2.1480 ho         1 C3G       0.385000
     33 N20         -0.3860     4.3090     6.4180 no         1 C3G       1.063200
     34 H1           2.8850     1.0590     6.1680 ha         1 C3G       0.139000
@<TRIPOS>BOND
     1     1     7 1   
     2     1    17 1   
     3     1    18 1   
     4     2     9 ar  
     5     2    10 ar  
     6     2    34 1   
     7     3    10 ar  
     8     3    11 ar  
     9     3    33 1   
    10     4     5 1   
    11     4     8 1   
    12     4    13 1   
    13     4    22 1   
    14     5     6 1   
    15     5    14 1   
    16     5    23 1   
    17     6    15 1   
    18     6    19 1   
    19     6    24 1   
    20     7     8 1   
    21     7    15 1   
    22     7    25 1   
    23     8    16 1   
    24     8    26 1   
    25     9    12 ar  
    26     9    19 1   
    27    10    27 1   
    28    11    12 ar  
    29    11    28 1   
    30    12    29 1   
    31    13    30 1   
    32    14    31 1   
    33    16    32 1   
    34    20    33 1   
    35    21    33 1   
@<TRIPOS>SUBSTRUCTURE
     1 C3G         1 TEMP              0 ****  ****    0 ROOT
