@<TRIPOS>MOLECULE
molecule
   43    42     1     0     0
SMALL
bcc


@<TRIPOS>ATOM
      1 O2           0.0000     0.0000     0.0000 o          1 C3H      -0.816300
      2 C11          1.2080     0.0000     0.0000 c          1 C3H       0.881600
      3 O3           1.8790     0.0000     1.1620 o          1 C3H      -0.816300
      4 C10          1.9610    -0.0080    -1.3060 c3         1 C3H      -0.020000
      5 N1           1.0090    -0.0140    -2.4190 ns         1 C3H      -0.483900
      6 C9           1.4590    -0.0200    -3.6890 c          1 C3H       0.604100
      7 O1           2.6500    -0.0230    -3.9110 o          1 C3H      -0.636100
      8 C8           0.4780    -0.0270    -4.8350 c3         1 C3H       0.036500
      9 N            1.1500     0.4390    -6.0560 nz         1 C3H      -0.793600
     10 C7          -0.0430    -1.4480    -5.0510 c3         1 C3H      -0.013300
     11 S           -1.2230    -1.4560    -6.4300 ss         1 C3H      -0.412200
     12 C3          -1.7220    -3.1970    -6.5310 c3         1 C3H       0.071100
     13 C4          -0.4930    -4.0650    -6.8040 c3         1 C3H      -0.100100
     14 C5          -2.7330    -3.3730    -7.6660 c3         1 C3H      -0.063400
     15 C6          -2.0560    -3.0680    -9.0040 c3         1 C3H       0.135400
     16 O           -3.0010    -3.2310   -10.0640 oh         1 C3H      -0.603800
     17 C2          -2.3620    -3.6220    -5.2070 c3         1 C3H      -0.077400
     18 C1          -3.6600    -2.8400    -4.9950 c3         1 C3H      -0.093400
     19 C           -4.3000    -3.2640    -3.6710 c3         1 C3H      -0.093100
     20 H2           2.5840    -0.8930    -1.3580 h1         1 C3H       0.063200
     21 H3           2.5850     0.8760    -1.3690 h1         1 C3H       0.063200
     22 H4           0.0260     0.0250    -2.2360 hn         1 C3H       0.346500
     23 H5          -0.3510     0.6310    -4.6050 hx         1 C3H       0.127700
     24 H6           1.8230    -0.2410    -6.3470 hn         1 C3H       0.458467
     25 H7           0.4720     0.5690    -6.7800 hn         1 C3H       0.458467
     26 H9          -0.5380    -1.7920    -4.1510 h1         1 C3H       0.107200
     27 H10          0.7860    -2.1060    -5.2820 h1         1 C3H       0.107200
     28 H11         -0.8050    -5.0060    -7.2410 hc         1 C3H       0.050367
     29 H12          0.1680    -3.5500    -7.4910 hc         1 C3H       0.050367
     30 H13          0.0300    -4.2550    -5.8750 hc         1 C3H       0.050367
     31 H14         -3.5630    -2.6930    -7.5180 hc         1 C3H       0.078700
     32 H15         -3.0970    -4.3930    -7.6700 hc         1 C3H       0.078700
     33 H16         -1.6910    -2.0480    -9.0000 h1         1 C3H       0.022200
     34 H17         -1.2260    -3.7480    -9.1520 h1         1 C3H       0.022200
     35 H18         -2.5670    -3.1120   -10.8920 ho         1 C3H       0.407000
     36 H19         -2.5800    -4.6830    -5.2360 hc         1 C3H       0.057700
     37 H20         -1.6780    -3.4150    -4.3930 hc         1 C3H       0.057700
     38 H21         -4.3440    -3.0460    -5.8090 hc         1 C3H       0.050700
     39 H22         -3.4420    -1.7790    -4.9660 hc         1 C3H       0.050700
     40 H23         -4.5670    -4.3130    -3.7190 hc         1 C3H       0.041700
     41 H24         -3.5960    -3.1080    -2.8630 hc         1 C3H       0.041700
     42 H25         -5.1900    -2.6730    -3.4940 hc         1 C3H       0.041700
     43 HN3          1.6270     1.2980    -5.8660 hn         1 C3H       0.458467
@<TRIPOS>BOND
     1     7     6 2
     2    11    10 1
     3    11    12 1
     4     1     2 1
     5    10     8 1
     6     6     5 1
     7     6     8 1
     8     2     3 1
     9     2     4 1
    10    17    12 1
    11    17    18 1
    12    19    18 1
    13     5     4 1
    14    12    13 1
    15    12    14 1
    16     8     9 1
    17    14    15 1
    18    15    16 1
    19     4    20 1
    20     4    21 1
    21     5    22 1
    22     8    23 1
    23     9    24 1
    24     9    25 1
    25    10    26 1
    26    10    27 1
    27    13    28 1
    28    13    29 1
    29    13    30 1
    30    14    31 1
    31    14    32 1
    32    15    33 1
    33    15    34 1
    34    16    35 1
    35    17    36 1
    36    17    37 1
    37    18    38 1
    38    18    39 1
    39    19    40 1
    40    19    41 1
    41    19    42 1
    42    43     9 1
@<TRIPOS>SUBSTRUCTURE
     1 C3H         1 TEMP              0 ****  ****    0 ROOT
