@<TRIPOS>MOLECULE
C3H
   43    42     1     0     0
SMALL
bcc


@<TRIPOS>ATOM
      1 O2           0.0000     0.0000     0.0000 o          1 C3H      -0.860800
      2 C11          1.2080     0.0000     0.0000 c          1 C3H       0.965600
      3 O3           1.8790     0.0000     1.1620 o          1 C3H      -0.860800
      4 C10          1.9610    -0.0080    -1.3060 c3         1 C3H      -0.100000
      5 N1           1.0090    -0.0140    -2.4190 ns         1 C3H      -0.028900
      6 C9           1.4590    -0.0200    -3.6890 c          1 C3H       0.489100
      7 O1           2.6500    -0.0230    -3.9110 o          1 C3H      -0.691100
      8 C8           0.4780    -0.0270    -4.8350 c3         1 C3H      -0.128500
      9 N            1.1500     0.4390    -6.0560 nz         1 C3H       0.084400
     10 C7          -0.0430    -1.4480    -5.0510 c3         1 C3H       0.036700
     11 S           -1.2230    -1.4560    -6.4300 ss         1 C3H      -0.431200
     12 C3          -1.7220    -3.1970    -6.5310 c3         1 C3H       0.091100
     13 C4          -0.4930    -4.0650    -6.8040 c3         1 C3H      -0.016100
     14 C5          -2.7330    -3.3730    -7.6660 c3         1 C3H      -0.025400
     15 C6          -2.0560    -3.0680    -9.0040 c3         1 C3H       0.208400
     16 O           -3.0010    -3.2310   -10.0640 oh         1 C3H      -0.584800
     17 C2          -2.3620    -3.6220    -5.2070 c3         1 C3H      -0.030400
     18 C1          -3.6600    -2.8400    -4.9950 c3         1 C3H      -0.054400
     19 C           -4.3000    -3.2640    -3.6710 c3         1 C3H       0.007900
     20 H2           2.5840    -0.8930    -1.3580 h1         1 C3H       0.041700
     21 H3           2.5850     0.8760    -1.3690 h1         1 C3H       0.041700
     22 H4           0.0260     0.0250    -2.2360 hn         1 C3H       0.200500
     23 H5          -0.3510     0.6310    -4.6050 hx         1 C3H       0.100700
     24 H6           1.8230    -0.2410    -6.3470 hn         1 C3H       0.229133
     25 H7           0.4720     0.5690    -6.7800 hn         1 C3H       0.229133
     26 H9          -0.5380    -1.7920    -4.1510 h1         1 C3H       0.081200
     27 H10          0.7860    -2.1060    -5.2820 h1         1 C3H       0.081200
     28 H11         -0.8050    -5.0060    -7.2410 hc         1 C3H       0.022700
     29 H12          0.1680    -3.5500    -7.4910 hc         1 C3H       0.022700
     30 H13          0.0300    -4.2550    -5.8750 hc         1 C3H       0.022700
     31 H14         -3.5630    -2.6930    -7.5180 hc         1 C3H       0.050700
     32 H15         -3.0970    -4.3930    -7.6700 hc         1 C3H       0.050700
     33 H16         -1.6910    -2.0480    -9.0000 h1         1 C3H      -0.007800
     34 H17         -1.2260    -3.7480    -9.1520 h1         1 C3H      -0.007800
     35 H18         -2.5670    -3.1120   -10.8920 ho         1 C3H       0.395000
     36 H19         -2.5800    -4.6830    -5.2360 hc         1 C3H       0.033200
     37 H20         -1.6780    -3.4150    -4.3930 hc         1 C3H       0.033200
     38 H21         -4.3440    -3.0460    -5.8090 hc         1 C3H       0.029700
     39 H22         -3.4420    -1.7790    -4.9660 hc         1 C3H       0.029700
     40 H23         -4.5670    -4.3130    -3.7190 hc         1 C3H       0.007700
     41 H24         -3.5960    -3.1080    -2.8630 hc         1 C3H       0.007700
     42 H25         -5.1900    -2.6730    -3.4940 hc         1 C3H       0.007700
     43 HN3          1.6270     1.2980    -5.8660 hn         1 C3H       0.229133
@<TRIPOS>BOND
     1     1     2 1   
     2     2     3 1   
     3     2     4 1   
     4     4     5 1   
     5     4    20 1   
     6     4    21 1   
     7     5     6 1   
     8     5    22 1   
     9     6     7 2   
    10     6     8 1   
    11     8     9 1   
    12     8    10 1   
    13     8    23 1   
    14     9    24 1   
    15     9    25 1   
    16     9    43 1   
    17    10    11 1   
    18    10    26 1   
    19    10    27 1   
    20    11    12 1   
    21    12    13 1   
    22    12    14 1   
    23    12    17 1   
    24    13    28 1   
    25    13    29 1   
    26    13    30 1   
    27    14    15 1   
    28    14    31 1   
    29    14    32 1   
    30    15    16 1   
    31    15    33 1   
    32    15    34 1   
    33    16    35 1   
    34    17    18 1   
    35    17    36 1   
    36    17    37 1   
    37    18    19 1   
    38    18    38 1   
    39    18    39 1   
    40    19    40 1   
    41    19    41 1   
    42    19    42 1   
@<TRIPOS>SUBSTRUCTURE
     1 C3H         1 TEMP              0 ****  ****    0 ROOT
