@<TRIPOS>MOLECULE
molecule
   55    59     1     0     0
SMALL
bcc


@<TRIPOS>ATOM
      1 C14          0.0000     0.0000     0.0000 ca         1 C3J      -0.135000
      2 C5           3.5160    -0.0010     0.8760 cc         1 C3J      -0.218400
      3 C6           3.5840    -0.0000    -0.4870 cd         1 C3J      -0.068100
      4 C11          1.3790    -0.0010     2.4240 ca         1 C3J      -0.080000
      5 C9           1.3920     0.0000     0.0000 ca         1 C3J      -0.055200
      6 C10          2.0820     0.0000     1.2220 ca         1 C3J      -0.050800
      7 C12         -0.0050     0.0100     2.4060 ca         1 C3J       0.121600
      8 C13         -0.6900     0.0060     1.1920 ca         1 C3J      -0.113000
      9 N2           5.9100    -0.0020     1.3450 ns         1 C3J      -0.591900
     10 C3           4.6460    -0.0020     1.8130 c          1 C3J       0.703300
     11 C1           7.0380    -0.0030     2.2800 c3         1 C3J       0.106300
     12 C16         -0.6850    -1.1510     4.5020 c3         1 C3J       0.243800
     13 C17         -2.1210    -1.4260     4.9680 c3         1 C3J      -0.103400
     14 C18         -2.6150    -0.2280     5.7800 c3         1 C3J      -0.028100
     15 C19         -2.3990     1.0520     5.0160 ca         1 C3J      -0.132300
     16 C20         -1.4770     1.1320     3.9820 ca         1 C3J       0.201600
     17 C21         -1.2960     2.3300     3.2970 ca         1 C3J      -0.157000
     18 C22         -2.0340     3.4430     3.6390 ca         1 C3J      -0.128300
     19 C23         -2.9640     3.3650     4.6740 ca         1 C3J      -0.012000
     20 C24         -3.1420     2.1660     5.3590 ca         1 C3J      -0.092000
     21 C25         -3.7630     4.5590     5.0460 cd         1 C3J      -0.258300
     22 C26         -3.2600     5.8500     5.3040 cd         1 C3J       0.353200
     23 C29         -5.1170     4.6090     5.1960 cc         1 C3J      -0.097300
     24 C31         -1.8360     4.7380     2.8960 c3         1 C3J       0.454200
     25 F32         -1.4460     4.4670     1.5800 f          1 C3J      -0.236800
     26 F33         -3.0340     5.4600     2.8880 f          1 C3J      -0.236800
     27 N15         -0.7200     0.0150     3.6090 nh         1 C3J      -0.609400
     28 N27         -4.2690     6.6280     5.5970 nc         1 C3J      -0.512800
     29 N28         -5.4460     5.8720     5.5370 na         1 C3J       0.062400
     30 N7           2.3350     0.0000    -1.0090 na         1 C3J      -0.165400
     31 O4           4.4420    -0.0030     3.0130 o          1 C3J      -0.611100
     32 H1          -0.5410    -0.0040    -0.9390 ha         1 C3J       0.130000
     33 H2           4.5000     0.0000    -1.0640 h4         1 C3J       0.162000
     34 H3           1.9120     0.0030     3.3670 ha         1 C3J       0.167000
     35 H4          -1.7730     0.0140     1.1850 ha         1 C3J       0.145000
     36 H5           6.0770    -0.0200     0.3580 hn         1 C3J       0.305500
     37 H6           6.9900     0.8800     2.9050 h1         1 C3J       0.041033
     38 H7           7.9680    -0.0010     1.7240 h1         1 C3J       0.041033
     39 H8           6.9910    -0.8890     2.9020 h1         1 C3J       0.041033
     40 H9          -0.0570    -0.9380     5.3580 h1         1 C3J       0.051200
     41 H10         -0.3040    -2.0120     3.9650 h1         1 C3J       0.051200
     42 H11         -2.1220    -2.3040     5.6030 hc         1 C3J       0.054200
     43 H12         -2.7550    -1.5470     4.0990 hc         1 C3J       0.054200
     44 H13         -3.6760    -0.3480     5.9610 hc         1 C3J       0.052700
     45 H14         -2.0490    -0.1790     6.7020 hc         1 C3J       0.052700
     46 H15         -0.5730     2.3880     2.4930 ha         1 C3J       0.155000
     47 H16         -3.8650     2.1060     6.1640 ha         1 C3J       0.134000
     48 H17         -2.2180     6.1450     5.2670 h4         1 C3J       0.045100
     49 H18         -5.7930     3.7630     5.1610 h4         1 C3J       0.170000
     50 H19         -7.4460     6.1010     4.9690 h1         1 C3J       0.053033
     51 H20         -7.1780     5.9270     6.7090 h1         1 C3J       0.053033
     52 H21         -6.7750     7.4470     5.8990 h1         1 C3J       0.053033
     53 H22         -1.0670     5.3220     3.3860 h2         1 C3J       0.068700
     54 H23          2.1250     0.0010    -1.9870 hn         1 C3J       0.299700
     55 C30         -6.7990     6.3690     5.7950 c3         1 C3J       0.065600
@<TRIPOS>BOND
     1    13    12 1
     2    13    14 1
     3    12    27 1
     4    14    15 1
     5    27     7 1
     6    27    16 1
     7     7     8 ar
     8     7     4 ar
     9     8     1 ar
    10     1     5 ar
    11     4     6 ar
    12     5     6 ar
    13     5    30 1
    14     6     2 1
    15    30     3 1
    16     2     3 2
    17     2    10 1
    18    10     9 1
    19    10    31 2
    20     9    11 1
    21    15    16 ar
    22    15    20 ar
    23    16    17 ar
    24    20    19 ar
    25    17    18 ar
    26    19    18 ar
    27    19    21 1
    28    18    24 1
    29    23    21 2
    30    23    29 1
    31    21    22 1
    32    26    24 1
    33    24    25 1
    34    29    55 1
    35    29    28 1
    36    22    28 2
    37     1    32 1
    38     3    33 1
    39     4    34 1
    40     8    35 1
    41     9    36 1
    42    11    37 1
    43    11    38 1
    44    11    39 1
    45    12    40 1
    46    12    41 1
    47    13    42 1
    48    13    43 1
    49    14    44 1
    50    14    45 1
    51    17    46 1
    52    20    47 1
    53    22    48 1
    54    23    49 1
    55    55    50 1
    56    55    51 1
    57    55    52 1
    58    24    53 1
    59    30    54 1
@<TRIPOS>SUBSTRUCTURE
     1 C3J         1 TEMP              0 ****  ****    0 ROOT
