@<TRIPOS>MOLECULE
C3J
   55    59     1     0     0
SMALL
bcc


@<TRIPOS>ATOM
      1 C14          0.0000     0.0000     0.0000 ca         1 C3J      -0.091000
      2 C5           3.5160    -0.0010     0.8760 cc         1 C3J      -0.219400
      3 C6           3.5840    -0.0000    -0.4870 cd         1 C3J      -0.247100
      4 C11          1.3790    -0.0010     2.4240 ca         1 C3J      -0.043000
      5 C9           1.3920     0.0000     0.0000 ca         1 C3J      -0.248200
      6 C10          2.0820     0.0000     1.2220 ca         1 C3J      -0.037800
      7 C12         -0.0050     0.0100     2.4060 ca         1 C3J      -0.013400
      8 C13         -0.6900     0.0060     1.1920 ca         1 C3J      -0.089000
      9 N2           5.9100    -0.0020     1.3450 ns         1 C3J      -0.203900
     10 C3           4.6460    -0.0020     1.8130 c          1 C3J       0.632300
     11 C1           7.0380    -0.0030     2.2800 c3         1 C3J       0.089300
     12 C16         -0.6850    -1.1510     4.5020 c3         1 C3J       0.172800
     13 C17         -2.1210    -1.4260     4.9680 c3         1 C3J      -0.047400
     14 C18         -2.6150    -0.2280     5.7800 c3         1 C3J       0.041900
     15 C19         -2.3990     1.0520     5.0160 ca         1 C3J      -0.138300
     16 C20         -1.4770     1.1320     3.9820 ca         1 C3J       0.068600
     17 C21         -1.2960     2.3300     3.2970 ca         1 C3J      -0.137000
     18 C22         -2.0340     3.4430     3.6390 ca         1 C3J      -0.143300
     19 C23         -2.9640     3.3650     4.6740 ca         1 C3J       0.008000
     20 C24         -3.1420     2.1660     5.3590 ca         1 C3J      -0.067000
     21 C25         -3.7630     4.5590     5.0460 cc         1 C3J      -0.262300
     22 C26         -3.2600     5.8500     5.3040 cc         1 C3J       0.404200
     23 C29         -5.1170     4.6090     5.1960 cd         1 C3J      -0.235300
     24 C31         -1.8360     4.7380     2.8960 c3         1 C3J       0.468200
     25 F32         -1.4460     4.4670     1.5800 f          1 C3J      -0.225800
     26 F33         -3.0340     5.4600     2.8880 f          1 C3J      -0.225800
     27 N15         -0.7200     0.0150     3.6090 nh         1 C3J      -0.220400
     28 N27         -4.2690     6.6280     5.5970 nd         1 C3J      -0.647800
     29 N28         -5.4460     5.8720     5.5370 na         1 C3J       0.487400
     30 N7           2.3350     0.0000    -1.0090 na         1 C3J       0.387600
     31 O4           4.4420    -0.0030     3.0130 o          1 C3J      -0.657100
     32 H1          -0.5410    -0.0040    -0.9390 ha         1 C3J       0.102000
     33 H2           4.5000     0.0000    -1.0640 h4         1 C3J       0.137000
     34 H3           1.9120     0.0030     3.3670 ha         1 C3J       0.138000
     35 H4          -1.7730     0.0140     1.1850 ha         1 C3J       0.115000
     36 H5           6.0770    -0.0200     0.3580 hn         1 C3J       0.166500
     37 H6           6.9900     0.8800     2.9050 h1         1 C3J       0.008367
     38 H7           7.9680    -0.0010     1.7240 h1         1 C3J       0.008367
     39 H8           6.9910    -0.8890     2.9020 h1         1 C3J       0.008367
     40 H9          -0.0570    -0.9380     5.3580 h1         1 C3J       0.022200
     41 H10         -0.3040    -2.0120     3.9650 h1         1 C3J       0.022200
     42 H11         -2.1220    -2.3040     5.6030 hc         1 C3J       0.024200
     43 H12         -2.7550    -1.5470     4.0990 hc         1 C3J       0.024200
     44 H13         -3.6760    -0.3480     5.9610 hc         1 C3J       0.022200
     45 H14         -2.0490    -0.1790     6.7020 hc         1 C3J       0.022200
     46 H15         -0.5730     2.3880     2.4930 ha         1 C3J       0.134000
     47 H16         -3.8650     2.1060     6.1640 ha         1 C3J       0.108000
     48 H17         -2.2180     6.1450     5.2670 h4         1 C3J       0.003100
     49 H18         -5.7930     3.7630     5.1610 h4         1 C3J       0.146000
     50 H19         -7.4460     6.1010     4.9690 h1         1 C3J       0.019700
     51 H20         -7.1780     5.9270     6.7090 h1         1 C3J       0.019700
     52 H21         -6.7750     7.4470     5.8990 h1         1 C3J       0.019700
     53 H22         -1.0670     5.3220     3.3860 h2         1 C3J       0.032700
     54 H23          2.1250     0.0010    -1.9870 hn         1 C3J       0.113700
     55 C30         -6.7990     6.3690     5.7950 c3         1 C3J       0.024600
@<TRIPOS>BOND
     1     1     5 ar  
     2     1     8 ar  
     3     1    32 1   
     4     2     3 2   
     5     2     6 1   
     6     2    10 1   
     7     3    30 1   
     8     3    33 1   
     9     4     6 ar  
    10     4     7 ar  
    11     4    34 1   
    12     5     6 ar  
    13     5    30 1   
    14     7     8 ar  
    15     7    27 1   
    16     8    35 1   
    17     9    10 1   
    18     9    11 1   
    19     9    36 1   
    20    10    31 2   
    21    11    37 1   
    22    11    38 1   
    23    11    39 1   
    24    12    13 1   
    25    12    27 1   
    26    12    40 1   
    27    12    41 1   
    28    13    14 1   
    29    13    42 1   
    30    13    43 1   
    31    14    15 1   
    32    14    44 1   
    33    14    45 1   
    34    15    16 ar  
    35    15    20 ar  
    36    16    17 ar  
    37    16    27 1   
    38    17    18 ar  
    39    17    46 1   
    40    18    19 ar  
    41    18    24 1   
    42    19    20 ar  
    43    19    21 1   
    44    20    47 1   
    45    21    22 1   
    46    21    23 2   
    47    22    28 2   
    48    22    48 1   
    49    23    29 1   
    50    23    49 1   
    51    24    25 1   
    52    24    26 1   
    53    24    53 1   
    54    28    29 1   
    55    29    55 1   
    56    30    54 1   
    57    50    55 1   
    58    51    55 1   
    59    52    55 1   
@<TRIPOS>SUBSTRUCTURE
     1 C3J         1 TEMP              0 ****  ****    0 ROOT
