@<TRIPOS>MOLECULE
C3K
   69    71     1     0     0
SMALL
bcc


@<TRIPOS>ATOM
      1 CAB          0.0000     0.0000     0.0000 c3         1 C3K       0.170100
      2 N            1.4690     0.0000     0.0000 n7         1 C3K      -0.541200
      3 CA           1.9960     0.0000     1.3720 c3         1 C3K       0.048500
      4 CB           2.0610    -1.4370     1.8930 c3         1 C3K      -0.038100
      5 C            3.3780     0.6010     1.3800 c          1 C3K       0.544100
      6 O            3.8750     0.9910     0.3450 o          1 C3K      -0.534100
      7 NAW          4.0610     0.7050     2.5370 ns         1 C3K      -0.230900
      8 CBG          5.4050     1.2880     2.5440 c3         1 C3K      -0.019300
      9 CBA          6.2880     0.5180     1.5990 c          1 C3K       0.630500
     10 OAG          6.6610     1.0530     0.5760 o          1 C3K      -0.598500
     11 NBH          6.6750    -0.7310     1.8490 n          1 C3K      -0.141800
     12 CBD          5.9720     1.2350     3.9640 c3         1 C3K      -0.083700
     13 CAS          5.6020     2.5200     4.7080 c3         1 C3K       0.055000
     14 NAV          6.2450     2.5230     6.0250 ns         1 C3K      -0.212900
     15 CAX          6.0590     3.5630     6.8620 c          1 C3K       0.569100
     16 OAD          5.3610     4.4960     6.5250 o          1 C3K      -0.639100
     17 CAH          6.7200     3.5670     8.2170 c3         1 C3K      -0.095400
     18 CAA          6.3500     4.8510     8.9610 c3         1 C3K       0.021900
     19 CAN          5.3910     0.0280     4.7090 c3         1 C3K      -0.037400
     20 CAO          5.1550    -1.1200     3.7290 c3         1 C3K      -0.181400
     21 CBE          6.4860    -1.5000     3.0860 c3         1 C3K       0.057900
     22 CAP          6.4990    -2.9490     2.6770 c2         1 C3K      -0.142200
     23 CAQ          6.9630    -3.0540     1.4570 c2         1 C3K      -0.166200
     24 CBF          7.3420    -1.6820     0.9440 c3         1 C3K       0.001900
     25 CAZ          6.8450    -1.4960    -0.4670 c          1 C3K       0.548100
     26 OAF          6.0100    -0.6500    -0.7090 o          1 C3K      -0.574100
     27 NAU          7.3290    -2.2690    -1.4600 ns         1 C3K      -0.204900
     28 CAR          6.8450    -2.0890    -2.8300 c3         1 C3K       0.113300
     29 CBB          7.5380    -3.0690    -3.7400 ca         1 C3K      -0.123300
     30 CAL          6.9890    -4.3190    -3.9580 ca         1 C3K      -0.085000
     31 CAJ          7.6250    -5.2180    -4.7920 ca         1 C3K      -0.103500
     32 CAI          8.8120    -4.8690    -5.4090 ca         1 C3K      -0.095000
     33 CAK          9.3610    -3.6190    -5.1930 ca         1 C3K      -0.103500
     34 CAM          8.7220    -2.7170    -4.3620 ca         1 C3K      -0.085000
     35 H1          -0.3610    -0.8160     0.6140 h1         1 C3K      -0.001633
     36 H2          -0.3610    -0.1240    -1.0140 h1         1 C3K      -0.001633
     37 H3          -0.3610     0.9400     0.3990 h1         1 C3K      -0.001633
     38 H4           1.8030    -0.8090    -0.4860 hn         1 C3K       0.263800
     39 H6           1.3450     0.5860     2.0090 h1         1 C3K       0.041700
     40 H7           1.1510    -1.9600     1.6260 hc         1 C3K       0.014033
     41 H8           2.9110    -1.9430     1.4520 hc         1 C3K       0.014033
     42 H9           2.1670    -1.4260     2.9710 hc         1 C3K       0.014033
     43 H10          3.6220     0.4540     3.4000 hn         1 C3K       0.204500
     44 H11          5.3530     2.3210     2.2210 h1         1 C3K       0.072700
     45 H12          7.0500     1.1400     3.9150 hc         1 C3K       0.045700
     46 H13          5.9420     3.3770     4.1390 h1         1 C3K       0.033200
     47 H14          4.5270     2.5700     4.8310 h1         1 C3K       0.033200
     48 H15          6.8620     1.7780     6.2820 hn         1 C3K       0.175500
     49 H16          6.3820     2.7090     8.7860 hc         1 C3K       0.023200
     50 H17          7.7950     3.5180     8.0940 hc         1 C3K       0.023200
     51 H18          6.6920     5.7080     8.3950 hc         1 C3K       0.009033
     52 H19          5.2740     4.9020     9.0800 hc         1 C3K       0.009033
     53 H20          6.8210     4.8520     9.9370 hc         1 C3K       0.009033
     54 H21          6.0890    -0.2910     5.4740 hc         1 C3K       0.021200
     55 H22          4.4500     0.3070     5.1670 hc         1 C3K       0.021200
     56 H23          4.8560    -1.9720     4.3280 hc         1 C3K       0.081700
     57 H24          4.5410    -0.7160     2.9330 hc         1 C3K       0.081700
     58 H25          7.3000    -1.3020     3.7740 h1         1 C3K       0.034700
     59 H26          6.1510    -3.7740     3.2860 ha         1 C3K       0.127000
     60 H27          7.5500    -3.9190     1.1730 ha         1 C3K       0.125000
     61 H28          8.4160    -1.5500     0.9900 h1         1 C3K       0.041700
     62 H29          8.0360    -2.9500    -1.2640 hn         1 C3K       0.170500
     63 H30          5.7760    -2.2600    -2.8620 h1         1 C3K       0.032200
     64 H31          7.0590    -1.0790    -3.1580 h1         1 C3K       0.032200
     65 H32          6.0590    -4.5930    -3.4750 ha         1 C3K       0.108500
     66 H33          7.1940    -6.1970    -4.9620 ha         1 C3K       0.103500
     67 H34          9.3110    -5.5750    -6.0620 ha         1 C3K       0.103000
     68 H35         10.2900    -3.3440    -5.6790 ha         1 C3K       0.103500
     69 H36          9.1530    -1.7380    -4.1930 ha         1 C3K       0.108500
@<TRIPOS>BOND
     1     1     2 1   
     2     1    35 1   
     3     1    36 1   
     4     1    37 1   
     5     2     3 1   
     6     2    38 1   
     7     3     4 1   
     8     3     5 1   
     9     3    39 1   
    10     4    40 1   
    11     4    41 1   
    12     4    42 1   
    13     5     6 2   
    14     5     7 1   
    15     7     8 1   
    16     7    43 1   
    17     8     9 1   
    18     8    12 1   
    19     8    44 1   
    20     9    10 2   
    21     9    11 1   
    22    11    21 1   
    23    11    24 1   
    24    12    13 1   
    25    12    19 1   
    26    12    45 1   
    27    13    14 1   
    28    13    46 1   
    29    13    47 1   
    30    14    15 1   
    31    14    48 1   
    32    15    16 2   
    33    15    17 1   
    34    17    18 1   
    35    17    49 1   
    36    17    50 1   
    37    18    51 1   
    38    18    52 1   
    39    18    53 1   
    40    19    20 1   
    41    19    54 1   
    42    19    55 1   
    43    20    21 1   
    44    20    56 1   
    45    20    57 1   
    46    21    22 1   
    47    21    58 1   
    48    22    23 2   
    49    22    59 1   
    50    23    24 1   
    51    23    60 1   
    52    24    25 1   
    53    24    61 1   
    54    25    26 2   
    55    25    27 1   
    56    27    28 1   
    57    27    62 1   
    58    28    29 1   
    59    28    63 1   
    60    28    64 1   
    61    29    30 ar  
    62    29    34 ar  
    63    30    31 ar  
    64    30    65 1   
    65    31    32 ar  
    66    31    66 1   
    67    32    33 ar  
    68    32    67 1   
    69    33    34 ar  
    70    33    68 1   
    71    34    69 1   
@<TRIPOS>SUBSTRUCTURE
     1 C3K         1 TEMP              0 ****  ****    0 ROOT
