@<TRIPOS>MOLECULE
molecule
   49    51     1     0     0
SMALL
bcc


@<TRIPOS>ATOM
      1 N1           0.0000     0.0000     0.0000 nz         1 C3M      -0.814600
      2 C2           1.4700     0.0000     0.0000 c3         1 C3M       0.091500
      3 C3           1.9790     0.0000     1.4430 c3         1 C3M      -0.051100
      4 C4           1.5800     1.2870     2.1170 ca         1 C3M      -0.151300
      5 C5           0.3740     1.3720     2.7870 ca         1 C3M      -0.136000
      6 C6           0.0090     2.5530     3.4060 ca         1 C3M      -0.103500
      7 C7           0.8490     3.6500     3.3530 ca         1 C3M      -0.098000
      8 C8           2.0550     3.5640     2.6840 ca         1 C3M      -0.103500
      9 C9           2.4230     2.3820     2.0690 ca         1 C3M      -0.136000
     10 C10          1.9800    -1.2490    -0.7210 c3         1 C3M       0.120100
     11 O11          3.4090    -1.2490    -0.7210 oh         1 C3M      -0.564800
     12 C12          1.4700    -1.2490    -2.1640 c3         1 C3M       0.216800
     13 N13          1.8580    -2.5010    -2.8190 n7         1 C3M      -0.911100
     14 S14          1.1400    -2.9460    -4.2440 sy         1 C3M       1.420200
     15 O15         -0.2560    -2.7760    -4.0430 o          1 C3M      -0.623300
     16 O16          1.7730    -4.1580    -4.6310 o          1 C3M      -0.623300
     17 C17          1.5990    -1.7560    -5.4590 ca         1 C3M      -0.315500
     18 C18          2.7530    -1.9570    -6.2150 ca         1 C3M      -0.057000
     19 C19          3.1350    -1.0570    -7.1620 ca         1 C3M      -0.112000
     20 C20          2.3580     0.0930    -7.3830 ca         1 C3M       0.018000
     21 C21          2.7200     1.0430    -8.3520 ca         1 C3M      -0.125000
     22 C22          1.9430     2.1450    -8.5390 ca         1 C3M      -0.112000
     23 C23          0.7890     2.3460    -7.7820 ca         1 C3M      -0.134000
     24 C24          0.4070     1.4460    -6.8350 ca         1 C3M      -0.120000
     25 C25          1.1850     0.2970    -6.6140 ca         1 C3M      -0.050000
     26 C26          0.8190    -0.6570    -5.6490 ca         1 C3M      -0.014000
     27 H1N1        -0.3340     0.4920    -0.8050 hn         1 C3M       0.458800
     28 H1N2        -0.3340     0.4510     0.8290 hn         1 C3M       0.458800
     29 H2           1.8310     0.8850    -0.5100 hx         1 C3M       0.131700
     30 H3C1         1.5460    -0.8370     1.9780 hc         1 C3M       0.091700
     31 H3C2         3.0580    -0.0890     1.4450 hc         1 C3M       0.091700
     32 H5          -0.2840     0.5120     2.8280 ha         1 C3M       0.130000
     33 H6          -0.9360     2.6200     3.9310 ha         1 C3M       0.154000
     34 H7           0.5620     4.5760     3.8360 ha         1 C3M       0.157000
     35 H8           2.7140     4.4230     2.6450 ha         1 C3M       0.154000
     36 H9           3.3690     2.3150     1.5440 ha         1 C3M       0.130000
     37 H10          1.6190    -2.1330    -0.2100 h1         1 C3M       0.057700
     38 H11          3.7230    -2.0460    -0.3260 ho         1 C3M       0.434000
     39 H121         0.3910    -1.1590    -2.1660 h1         1 C3M       0.050700
     40 H122         1.9020    -0.4120    -2.7000 h1         1 C3M       0.050700
     41 H13          2.5480    -3.0930    -2.4000 hn         1 C3M       0.462800
     42 H18          3.3510    -2.8450    -6.0500 ha         1 C3M       0.155000
     43 H19          4.0340    -1.2270    -7.7430 ha         1 C3M       0.150000
     44 H21          3.5460     1.0220    -9.0530 ha         1 C3M       0.149000
     45 H22          2.1860     2.8830    -9.2930 ha         1 C3M       0.141000
     46 H23          0.2080     3.2240    -8.0370 ha         1 C3M       0.139000
     47 H24         -0.5770     1.7120    -6.4690 ha         1 C3M       0.139000
     48 H26         -0.1280    -0.5690    -5.1320 ha         1 C3M       0.142000
     49 H131        -0.3340    -0.9430    -0.0240 hn         1 C3M       0.458800
@<TRIPOS>BOND
     1     1     2 1
     2     1    27 1
     3     1    28 1
     4     2     3 1
     5     2    10 1
     6     2    29 1
     7     3     4 1
     8     3    30 1
     9     3    31 1
    10     4     5 ar
    11     4     9 ar
    12     5     6 ar
    13     5    32 1
    14     6     7 ar
    15     6    33 1
    16     7     8 ar
    17     7    34 1
    18     8     9 ar
    19     8    35 1
    20     9    36 1
    21    10    11 1
    22    10    12 1
    23    10    37 1
    24    11    38 1
    25    12    13 1
    26    12    39 1
    27    12    40 1
    28    13    14 1
    29    13    41 1
    30    14    15 2
    31    14    16 2
    32    14    17 1
    33    17    18 ar
    34    17    26 ar
    35    18    19 ar
    36    18    42 1
    37    19    20 ar
    38    19    43 1
    39    20    21 ar
    40    20    25 ar
    41    21    22 ar
    42    21    44 1
    43    22    23 ar
    44    22    45 1
    45    23    24 ar
    46    23    46 1
    47    24    25 ar
    48    24    47 1
    49    25    26 ar
    50    26    48 1
    51    49     1 1
@<TRIPOS>SUBSTRUCTURE
     1 C3M         1 TEMP              0 ****  ****    0 ROOT
