@<TRIPOS>MOLECULE
C3M
   49    51     1     0     0
SMALL
bcc


@<TRIPOS>ATOM
      1 N1           0.0000     0.0000     0.0000 nz         1 C3M       0.038400
      2 C2           1.4700     0.0000     0.0000 c3         1 C3M      -0.092500
      3 C3           1.9790     0.0000     1.4430 c3         1 C3M       0.033900
      4 C4           1.5800     1.2870     2.1170 ca         1 C3M      -0.173300
      5 C5           0.3740     1.3720     2.7870 ca         1 C3M      -0.103000
      6 C6           0.0090     2.5530     3.4060 ca         1 C3M      -0.072500
      7 C7           0.8490     3.6500     3.3530 ca         1 C3M      -0.063000
      8 C8           2.0550     3.5640     2.6840 ca         1 C3M      -0.072500
      9 C9           2.4230     2.3820     2.0690 ca         1 C3M      -0.103000
     10 C10          1.9800    -1.2490    -0.7210 c3         1 C3M       0.172100
     11 O11          3.4090    -1.2490    -0.7210 oh         1 C3M      -0.547800
     12 C12          1.4700    -1.2490    -2.1640 c3         1 C3M       0.200800
     13 N13          1.8580    -2.5010    -2.8190 n7         1 C3M      -0.590100
     14 S14          1.1400    -2.9460    -4.2440 sy         1 C3M       1.049200
     15 O15         -0.2560    -2.7760    -4.0430 o          1 C3M      -0.572300
     16 O16          1.7730    -4.1580    -4.6310 o          1 C3M      -0.572300
     17 C17          1.5990    -1.7560    -5.4590 ca         1 C3M      -0.161500
     18 C18          2.7530    -1.9570    -6.2150 ca         1 C3M      -0.027000
     19 C19          3.1350    -1.0570    -7.1620 ca         1 C3M      -0.089000
     20 C20          2.3580     0.0930    -7.3830 ca         1 C3M       0.017000
     21 C21          2.7200     1.0430    -8.3520 ca         1 C3M      -0.094000
     22 C22          1.9430     2.1450    -8.5390 ca         1 C3M      -0.087000
     23 C23          0.7890     2.3460    -7.7820 ca         1 C3M      -0.108000
     24 C24          0.4070     1.4460    -6.8350 ca         1 C3M      -0.091000
     25 C25          1.1850     0.2970    -6.6140 ca         1 C3M      -0.056000
     26 C26          0.8190    -0.6570    -5.6490 ca         1 C3M       0.016000
     27 H1N1        -0.3340     0.4920    -0.8050 hn         1 C3M       0.235800
     28 H1N2        -0.3340     0.4510     0.8290 hn         1 C3M       0.235800
     29 H2           1.8310     0.8850    -0.5100 hx         1 C3M       0.105700
     30 H3C1         1.5460    -0.8370     1.9780 hc         1 C3M       0.055200
     31 H3C2         3.0580    -0.0890     1.4450 hc         1 C3M       0.055200
     32 H5          -0.2840     0.5120     2.8280 ha         1 C3M       0.106500
     33 H6          -0.9360     2.6200     3.9310 ha         1 C3M       0.121500
     34 H7           0.5620     4.5760     3.8360 ha         1 C3M       0.123000
     35 H8           2.7140     4.4230     2.6450 ha         1 C3M       0.121500
     36 H9           3.3690     2.3150     1.5440 ha         1 C3M       0.106500
     37 H10          1.6190    -2.1330    -0.2100 h1         1 C3M       0.022700
     38 H11          3.7230    -2.0460    -0.3260 ho         1 C3M       0.419000
     39 H121         0.3910    -1.1590    -2.1660 h1         1 C3M       0.016200
     40 H122         1.9020    -0.4120    -2.7000 h1         1 C3M       0.016200
     41 H13          2.5480    -3.0930    -2.4000 hn         1 C3M       0.357800
     42 H18          3.3510    -2.8450    -6.0500 ha         1 C3M       0.128000
     43 H19          4.0340    -1.2270    -7.7430 ha         1 C3M       0.120000
     44 H21          3.5460     1.0220    -9.0530 ha         1 C3M       0.120000
     45 H22          2.1860     2.8830    -9.2930 ha         1 C3M       0.111000
     46 H23          0.2080     3.2240    -8.0370 ha         1 C3M       0.110000
     47 H24         -0.5770     1.7120    -6.4690 ha         1 C3M       0.111000
     48 H26         -0.1280    -0.5690    -5.1320 ha         1 C3M       0.117000
     49 H131        -0.3340    -0.9430    -0.0240 hn         1 C3M       0.235800
@<TRIPOS>BOND
     1     1     2 1   
     2     1    27 1   
     3     1    28 1   
     4     1    49 1   
     5     2     3 1   
     6     2    10 1   
     7     2    29 1   
     8     3     4 1   
     9     3    30 1   
    10     3    31 1   
    11     4     5 ar  
    12     4     9 ar  
    13     5     6 ar  
    14     5    32 1   
    15     6     7 ar  
    16     6    33 1   
    17     7     8 ar  
    18     7    34 1   
    19     8     9 ar  
    20     8    35 1   
    21     9    36 1   
    22    10    11 1   
    23    10    12 1   
    24    10    37 1   
    25    11    38 1   
    26    12    13 1   
    27    12    39 1   
    28    12    40 1   
    29    13    14 1   
    30    13    41 1   
    31    14    15 2   
    32    14    16 2   
    33    14    17 1   
    34    17    18 ar  
    35    17    26 ar  
    36    18    19 ar  
    37    18    42 1   
    38    19    20 ar  
    39    19    43 1   
    40    20    21 ar  
    41    20    25 ar  
    42    21    22 ar  
    43    21    44 1   
    44    22    23 ar  
    45    22    45 1   
    46    23    24 ar  
    47    23    46 1   
    48    24    25 ar  
    49    24    47 1   
    50    25    26 ar  
    51    26    48 1   
@<TRIPOS>SUBSTRUCTURE
     1 C3M         1 TEMP              0 ****  ****    0 ROOT
