@<TRIPOS>MOLECULE
molecule
   84    86     1     0     0
SMALL
bcc


@<TRIPOS>ATOM
      1 C5           0.0000     0.0000     0.0000 ce         1 C3O      -0.085200
      2 C4           1.5150     0.0000     0.0000 c3         1 C3O      -0.056200
      3 C3           1.9980     0.0000     1.4540 c3         1 C3O       0.154100
      4 C2           1.4310     1.2160     2.1880 c3         1 C3O       0.134100
      5 C1          -0.0910     1.0880     2.3030 c3         1 C3O       0.168300
      6 C10         -0.6660     0.9580     0.9060 ce         1 C3O      -0.097200
      7 C6          -0.7070    -0.8360    -0.7890 cf         1 C3O      -0.115000
      8 C7          -2.1710    -0.8060    -0.7610 cf         1 C3O      -0.163000
      9 C8          -2.8690    -1.6310    -1.5410 c2         1 C3O      -0.091400
     10 C14         -4.3690    -1.6510    -1.5510 c3         1 C3O      -0.035500
     11 C13         -4.7740    -3.1000    -1.1780 c3         1 C3O      -0.059000
     12 C12         -4.3240    -4.0050    -2.2990 c3         1 C3O      -0.066400
     13 C11         -2.7860    -4.0240    -2.2910 c3         1 C3O      -0.078400
     14 C9          -2.2020    -2.6250    -2.4810 c3         1 C3O      -0.045200
     15 C15         -5.0590    -0.8450    -0.4530 c3         1 C3O      -0.079400
     16 C16         -6.4550    -1.5270    -0.3720 c3         1 C3O      -0.081400
     17 C17         -6.2650    -2.9710    -0.9080 c3         1 C3O      -0.054700
     18 C19         -1.7220     1.6720     0.5150 c2         1 C3O      -0.209000
     19 O2           3.4260     0.0530     1.4790 oh         1 C3O      -0.600800
     20 O1          -0.4240    -0.0720     3.0690 oh         1 C3O      -0.583800
     21 C20         -6.7050    -3.9920     0.1430 c3         1 C3O      -0.069700
     22 C22         -8.2060    -3.8460     0.3990 c3         1 C3O      -0.081400
     23 C18         -4.0600    -3.5010     0.1140 c3         1 C3O      -0.092100
     24 C21         -6.4100    -5.4050    -0.3640 c3         1 C3O      -0.097100
     25 C23         -8.6230    -4.7790     1.5370 c3         1 C3O      -0.082400
     26 C24        -10.1240    -4.6330     1.7940 c3         1 C3O      -0.066400
     27 C25        -10.5410    -5.5660     2.9320 c3         1 C3O       0.147800
     28 O25        -10.2490    -6.9180     2.5710 oh         1 C3O      -0.603800
     29 C27         -9.7690    -5.1990     4.2010 c3         1 C3O      -0.120100
     30 C26        -12.0420    -5.4200     3.1890 c3         1 C3O      -0.120100
     31 O28          2.0010     1.2900     3.4960 os         1 C3O      -0.385600
     32 C29          2.0470     2.6740     3.8490 c3         1 C3O       0.122400
     33 C30          2.6500     2.8230     5.2480 c3         1 C3O      -0.084400
     34 C31          2.6990     4.3050     5.6260 c3         1 C3O      -0.092100
     35 H41          1.8790    -0.8870    -0.5040 hc         1 C3O       0.057700
     36 H42          1.8790     0.8870    -0.5040 hc         1 C3O       0.057700
     37 H3           1.6580    -0.9040     1.9440 h1         1 C3O       0.064700
     38 H2           1.6730     2.1140     1.6330 h1         1 C3O       0.056700
     39 H1          -0.4940     1.9730     2.7790 h1         1 C3O       0.039700
     40 H6          -0.1920    -1.5290    -1.4430 ha         1 C3O       0.134000
     41 H7          -2.6860    -0.0940    -0.1280 ha         1 C3O       0.146000
     42 H14         -4.7540    -1.3850    -2.5280 hc         1 C3O       0.065700
     43 H121        -4.6810    -3.6210    -3.2470 hc         1 C3O       0.045700
     44 H122        -4.7030    -5.0070    -2.1370 hc         1 C3O       0.045700
     45 H111        -2.4450    -4.4220    -1.3440 hc         1 C3O       0.043700
     46 H112        -2.4380    -4.6620    -3.0950 hc         1 C3O       0.043700
     47 H91         -2.3610    -2.3090    -3.5040 hc         1 C3O       0.048700
     48 H92         -1.1390    -2.6530    -2.2720 hc         1 C3O       0.048700
     49 H151        -5.1560     0.1940    -0.7430 hc         1 C3O       0.047700
     50 H152        -4.5290    -0.9430     0.4860 hc         1 C3O       0.047700
     51 H161        -6.7950    -1.5540     0.6560 hc         1 C3O       0.043200
     52 H162        -7.1650    -0.9920    -0.9910 hc         1 C3O       0.043200
     53 H17         -6.8240    -3.1040    -1.8260 hc         1 C3O       0.053700
     54 H191        -2.1110     1.5570    -0.4900 ha         1 C3O       0.122500
     55 H192        -2.1900     2.3670     1.2010 ha         1 C3O       0.122500
     56 HO2          3.7710    -0.8210     1.5520 ho         1 C3O       0.404000
     57 HO1         -1.0330     0.1650     3.7490 ho         1 C3O       0.402000
     58 H20         -6.1630    -3.8180     1.0640 hc         1 C3O       0.058700
     59 H221        -8.4280    -2.8210     0.6730 hc         1 C3O       0.040200
     60 H222        -8.7530    -4.1050    -0.4990 hc         1 C3O       0.040200
     61 H181        -3.0550    -3.0970     0.1110 hc         1 C3O       0.041367
     62 H182        -4.0150    -4.5810     0.1820 hc         1 C3O       0.041367
     63 H183        -4.6040    -3.1080     0.9650 hc         1 C3O       0.041367
     64 H211        -6.4020    -5.4060    -1.4470 hc         1 C3O       0.038033
     65 H212        -5.4420    -5.7260     0.0040 hc         1 C3O       0.038033
     66 H213        -7.1750    -6.0840    -0.0070 hc         1 C3O       0.038033
     67 H231        -8.4020    -5.8030     1.2630 hc         1 C3O       0.052200
     68 H232        -8.0770    -4.5190     2.4360 hc         1 C3O       0.052200
     69 H241       -10.3450    -3.6080     2.0680 hc         1 C3O       0.047200
     70 H242       -10.6710    -4.8920     0.8950 hc         1 C3O       0.047200
     71 H25        -10.7830    -7.5020     3.0820 ho         1 C3O       0.401000
     72 H271       -10.3050    -5.5650     5.0690 hc         1 C3O       0.041533
     73 H272        -8.7850    -5.6510     4.1680 hc         1 C3O       0.041533
     74 H273        -9.6700    -4.1230     4.2660 hc         1 C3O       0.041533
     75 H261       -12.2670    -4.3910     3.4420 hc         1 C3O       0.041533
     76 H262       -12.5900    -5.7000     2.2970 hc         1 C3O       0.041533
     77 H263       -12.3330    -6.0650     4.0090 hc         1 C3O       0.041533
     78 H291         1.0430     3.0810     3.8440 h1         1 C3O       0.023200
     79 H292         2.6580     3.2100     3.1330 h1         1 C3O       0.023200
     80 H301         2.0390     2.2870     5.9640 hc         1 C3O       0.053200
     81 H302         3.6540     2.4160     5.2540 hc         1 C3O       0.053200
     82 H311         3.1320     4.4120     6.6130 hc         1 C3O       0.034700
     83 H312         1.6940     4.7100     5.6270 hc         1 C3O       0.034700
     84 H313         3.3040     4.8420     4.9050 hc         1 C3O       0.034700
@<TRIPOS>BOND
     1     1     2 1
     2     1     6 1
     3     1     7 2
     4     2     3 1
     5     2    35 1
     6     2    36 1
     7     3     4 1
     8     3    19 1
     9     3    37 1
    10     4     5 1
    11     4    31 1
    12     4    38 1
    13     5     6 1
    14     5    20 1
    15     5    39 1
    16     6    18 2
    17     7     8 1
    18     7    40 1
    19     8     9 2
    20     8    41 1
    21     9    10 1
    22     9    14 1
    23    10    11 1
    24    10    15 1
    25    10    42 1
    26    11    12 1
    27    11    17 1
    28    11    23 1
    29    12    13 1
    30    12    43 1
    31    12    44 1
    32    13    14 1
    33    13    45 1
    34    13    46 1
    35    14    47 1
    36    14    48 1
    37    15    16 1
    38    15    49 1
    39    15    50 1
    40    16    17 1
    41    16    51 1
    42    16    52 1
    43    17    21 1
    44    17    53 1
    45    18    54 1
    46    18    55 1
    47    19    56 1
    48    20    57 1
    49    21    22 1
    50    21    24 1
    51    21    58 1
    52    22    25 1
    53    22    59 1
    54    22    60 1
    55    23    61 1
    56    23    62 1
    57    23    63 1
    58    24    64 1
    59    24    65 1
    60    24    66 1
    61    25    26 1
    62    25    67 1
    63    25    68 1
    64    26    27 1
    65    26    69 1
    66    26    70 1
    67    27    28 1
    68    27    29 1
    69    27    30 1
    70    28    71 1
    71    29    72 1
    72    29    73 1
    73    29    74 1
    74    30    75 1
    75    30    76 1
    76    30    77 1
    77    31    32 1
    78    32    33 1
    79    32    78 1
    80    32    79 1
    81    33    34 1
    82    33    80 1
    83    33    81 1
    84    34    82 1
    85    34    83 1
    86    34    84 1
@<TRIPOS>SUBSTRUCTURE
     1 C3O         1 TEMP              0 ****  ****    0 ROOT
