@<TRIPOS>MOLECULE
C3O
   84    86     1     0     0
SMALL
bcc


@<TRIPOS>ATOM
      1 C5          0.1340    0.0630    0.2060 ce        1 C3O     -0.079200
      2 C4          1.6190    0.0720    0.0640 c3        1 C3O     -0.037200
      3 C3          2.2950    0.3690    1.3990 c3        1 C3O      0.153100
      4 C2          1.7780    1.7050    1.9580 c3        1 C3O      0.067100
      5 C1          0.2560    1.6490    2.1740 c3        1 C3O      0.167300
      6 C10        -0.4450    1.2040    0.9160 ce        1 C3O     -0.075200
      7 C6         -0.5910   -0.9460   -0.3200 cf        1 C3O     -0.103000
      8 C7         -2.0250   -1.0780   -0.2150 cf        1 C3O     -0.152000
      9 C8         -2.8110   -1.7840   -1.0460 c2        1 C3O     -0.079400
     10 C14        -4.2840   -1.8920   -0.8800 c3        1 C3O     -0.036500
     11 C13        -4.7340   -3.3800   -0.8240 c3        1 C3O     -0.039000
     12 C12        -4.3880   -3.9950   -2.1720 c3        1 C3O     -0.067400
     13 C11        -2.9000   -3.8780   -2.4520 c3        1 C3O     -0.073400
     14 C9         -2.3430   -2.4740   -2.2870 c3        1 C3O     -0.044200
     15 C15        -4.9880   -1.2530    0.3080 c3        1 C3O     -0.074400
     16 C16        -6.3160   -2.0060    0.4150 c3        1 C3O     -0.078400
     17 C17        -6.2430   -3.2280   -0.5250 c3        1 C3O     -0.053700
     18 C19        -1.5340    1.8540    0.4870 c2        1 C3O     -0.190000
     19 O2          3.6910    0.4390    1.1540 oh        1 C3O     -0.600800
     20 O1         -0.1000    0.7560    3.2210 oh        1 C3O     -0.590800
     21 C20        -6.9510   -4.4430    0.0650 c3        1 C3O     -0.054700
     22 C22        -8.4230   -4.1230    0.3210 c3        1 C3O     -0.079400
     23 C18        -4.0320   -4.1210    0.3010 c3        1 C3O     -0.083100
     24 C21        -6.8520   -5.6500   -0.8490 c3        1 C3O     -0.092100
     25 C23        -9.0280   -5.0360    1.3680 c3        1 C3O     -0.079400
     26 C24       -10.4790   -4.6860    1.6160 c3        1 C3O     -0.064400
     27 C25       -11.1850   -5.6860    2.5370 c3        1 C3O      0.147800
     28 O25       -11.1660   -6.9390    1.8490 oh        1 C3O     -0.597800
     29 C27       -10.4760   -5.8180    3.8790 c3        1 C3O     -0.123100
     30 C26       -12.6300   -5.2450    2.7550 c3        1 C3O     -0.123100
     31 O28         2.4390    1.8770    3.2140 os        1 C3O     -0.442600
     32 C29         2.5370    3.2440    3.6200 c3        1 C3O      0.128400
     33 C30         3.2490    3.2460    4.9610 c3        1 C3O     -0.085400
     34 C31         3.4010    4.6530    5.4770 c3        1 C3O     -0.094100
     35 H41         1.9980   -0.9140   -0.3150 hc        1 C3O      0.063700
     36 H42         1.9200    0.8550   -0.6840 hc        1 C3O      0.063700
     37 H3          2.0790   -0.4470    2.1440 h1        1 C3O      0.058700
     38 H2          2.0370    2.5430    1.2560 h1        1 C3O      0.066700
     39 H1         -0.1020    2.6790    2.4700 h1        1 C3O      0.036700
     40 H6         -0.0610   -1.7620   -0.8450 ha        1 C3O      0.124000
     41 H7         -2.4810   -0.5490    0.6450 ha        1 C3O      0.138000
     42 H14        -4.7390   -1.4390   -1.8140 hc        1 C3O      0.053700
     43 H121       -4.6800   -5.0760   -2.1950 hc        1 C3O      0.042200
     44 H122       -4.9680   -3.4740   -2.9790 hc        1 C3O      0.042200
     45 H111       -2.3450   -4.5730   -1.7670 hc        1 C3O      0.040700
     46 H112       -2.7000   -4.2190   -3.5020 hc        1 C3O      0.040700
     47 H91        -1.2230   -2.5290   -2.3170 hc        1 C3O      0.046700
     48 H92        -2.6650   -1.8470   -3.1640 hc        1 C3O      0.046700
     49 H151       -4.3910   -1.3800    1.2450 hc        1 C3O      0.045700
     50 H152       -5.1480   -0.1600    0.1470 hc        1 C3O      0.045700
     51 H161       -6.4870   -2.3320    1.4710 hc        1 C3O      0.041700
     52 H162       -7.1660   -1.3440    0.1180 hc        1 C3O      0.041700
     53 H17        -6.7580   -2.9700   -1.4920 hc        1 C3O      0.045700
     54 H191       -2.0580    1.5710   -0.4350 ha        1 C3O      0.120500
     55 H192       -1.9620    2.7050    1.0320 ha        1 C3O      0.120500
     56 HO2         4.1030    0.6710    1.9970 ho        1 C3O      0.415000
     57 HO1         0.6100    0.7940    3.8780 ho        1 C3O      0.415000
     58 H20        -6.4650   -4.6970    1.0490 hc        1 C3O      0.050700
     59 H221       -8.5350   -3.0620    0.6650 hc        1 C3O      0.040200
     60 H222       -8.9950   -4.2190   -0.6400 hc        1 C3O      0.040200
     61 H181       -4.3890   -3.7480    1.2930 hc        1 C3O      0.038033
     62 H182       -4.2360   -5.2160    0.2360 hc        1 C3O      0.038033
     63 H183       -2.9280   -3.9610    0.2480 hc        1 C3O      0.038033
     64 H211       -7.5860   -6.4340   -0.5400 hc        1 C3O      0.035033
     65 H212       -7.0680   -5.3630   -1.9060 hc        1 C3O      0.035033
     66 H213       -5.8310   -6.0980   -0.8020 hc        1 C3O      0.035033
     67 H231       -8.9620   -6.1070    1.0380 hc        1 C3O      0.048700
     68 H232       -8.4470   -4.9440    2.3240 hc        1 C3O      0.048700
     69 H241      -11.0280   -4.6630    0.6380 hc        1 C3O      0.047200
     70 H242      -10.5550   -3.6690    2.0810 hc        1 C3O      0.047200
     71 H25       -11.6080   -7.5760    2.4220 ho        1 C3O      0.397000
     72 H271       -9.4900   -6.3230    3.7410 hc        1 C3O      0.042200
     73 H272      -10.3110   -4.8100    4.3250 hc        1 C3O      0.042200
     74 H273      -11.0910   -6.4280    4.5830 hc        1 C3O      0.042200
     75 H261      -12.6540   -4.2490    3.2560 hc        1 C3O      0.042200
     76 H262      -13.1680   -5.9830    3.3970 hc        1 C3O      0.042200
     77 H263      -13.1590   -5.1740    1.7760 hc        1 C3O      0.042200
     78 H291        1.5080    3.6830    3.7090 h1        1 C3O      0.033200
     79 H292        3.1190    3.8210    2.8530 h1        1 C3O      0.033200
     80 H301        2.6650    2.6260    5.6910 hc        1 C3O      0.053700
     81 H302        4.2540    2.7630    4.8460 hc        1 C3O      0.053700
     82 H311        2.4040    5.1360    5.6120 hc        1 C3O      0.037700
     83 H312        3.9260    4.6440    6.4630 hc        1 C3O      0.037700
     84 H313        3.9980    5.2730    4.7650 hc        1 C3O      0.037700
@<TRIPOS>BOND
     1    1    2 1   
     2    1    6 1   
     3    1    7 2   
     4    2    3 1   
     5    2   35 1   
     6    2   36 1   
     7    3    4 1   
     8    3   19 1   
     9    3   37 1   
    10    4    5 1   
    11    4   31 1   
    12    4   38 1   
    13    5    6 1   
    14    5   20 1   
    15    5   39 1   
    16    6   18 2   
    17    7    8 1   
    18    7   40 1   
    19    8    9 2   
    20    8   41 1   
    21    9   10 1   
    22    9   14 1   
    23   10   11 1   
    24   10   15 1   
    25   10   42 1   
    26   11   12 1   
    27   11   17 1   
    28   11   23 1   
    29   12   13 1   
    30   12   43 1   
    31   12   44 1   
    32   13   14 1   
    33   13   45 1   
    34   13   46 1   
    35   14   47 1   
    36   14   48 1   
    37   15   16 1   
    38   15   49 1   
    39   15   50 1   
    40   16   17 1   
    41   16   51 1   
    42   16   52 1   
    43   17   21 1   
    44   17   53 1   
    45   18   54 1   
    46   18   55 1   
    47   19   56 1   
    48   20   57 1   
    49   21   22 1   
    50   21   24 1   
    51   21   58 1   
    52   22   25 1   
    53   22   59 1   
    54   22   60 1   
    55   23   61 1   
    56   23   62 1   
    57   23   63 1   
    58   24   64 1   
    59   24   65 1   
    60   24   66 1   
    61   25   26 1   
    62   25   67 1   
    63   25   68 1   
    64   26   27 1   
    65   26   69 1   
    66   26   70 1   
    67   27   28 1   
    68   27   29 1   
    69   27   30 1   
    70   28   71 1   
    71   29   72 1   
    72   29   73 1   
    73   29   74 1   
    74   30   75 1   
    75   30   76 1   
    76   30   77 1   
    77   31   32 1   
    78   32   33 1   
    79   32   78 1   
    80   32   79 1   
    81   33   34 1   
    82   33   80 1   
    83   33   81 1   
    84   34   82 1   
    85   34   83 1   
    86   34   84 1   
@<TRIPOS>SUBSTRUCTURE
     1 C3O         1 TEMP              0 ****  ****    0 ROOT
