@<TRIPOS>MOLECULE
C3P
   33    34     1     0     0
SMALL
bcc


@<TRIPOS>ATOM
      1 P           0.0270    0.7160    0.5730 p5        1 C3P      1.321900
      2 O1P         1.4870    0.8410    0.2080 o         1 C3P     -0.920500
      3 O2P        -0.4730    1.5440    1.7130 o         1 C3P     -0.920500
      4 O3P        -0.5800   -0.6380    0.3660 o         1 C3P     -0.920500
      5 O5'         3.1790    1.8570   -1.9650 oh        1 C3P     -0.672800
      6 C5'         2.2400    1.9290   -3.0110 c3        1 C3P      0.151400
      7 C4'         0.8730    2.4010   -2.5200 c3        1 C3P      0.070100
      8 O4'         0.1910    3.0610   -3.6130 os        1 C3P     -0.443600
      9 C3'        -0.0100    1.2320   -1.9980 c3        1 C3P      0.205100
     10 O3'        -0.6510    1.5500   -0.8380 os        1 C3P     -0.552200
     11 C2'        -1.0450    1.0280   -3.1470 c3        1 C3P      0.098100
     12 O2'        -2.3570    0.7730   -2.7170 oh        1 C3P     -0.641800
     13 C1'        -1.0360    2.3950   -3.8950 c3        1 C3P      0.271500
     14 N1         -1.2470    2.3240   -5.3540 n         1 C3P     -0.336000
     15 C2         -0.3990    1.5610   -6.2380 c         1 C3P      0.823900
     16 N3         -0.6700    1.5320   -7.6270 nc        1 C3P     -0.729100
     17 C4         -1.6960    2.2400   -8.1050 cd        1 C3P      0.701500
     18 C5         -2.5660    3.0190   -7.2440 cd        1 C3P     -0.480600
     19 C6         -2.2800    3.0280   -5.8950 cc        1 C3P      0.092600
     20 O2          0.5560    0.9120   -5.7750 o         1 C3P     -0.582500
     21 N4         -1.9320    2.2900   -9.4940 nh        1 C3P     -0.887800
     22 HO5'        2.7360    1.4570   -1.1820 ho        1 C3P      0.497000
     23 H5'1        2.6610    2.6670   -3.7470 h1        1 C3P      0.017200
     24 H5'2        2.1450    0.9310   -3.5180 h1        1 C3P      0.017200
     25 H3'         0.6200    0.3030   -1.8750 h1        1 C3P      0.081700
     26 H2'1       -0.7370    0.1890   -3.8230 h1        1 C3P      0.062700
     27 HO2'       -2.3600    0.8270   -1.7420 ho        1 C3P      0.463000
     28 H1'        -1.8650    3.0470   -3.4800 h2        1 C3P      0.058700
     29 H5         -3.4030    3.5940   -7.6460 ha        1 C3P      0.135000
     30 H6         -2.9100    3.6130   -5.1950 h4        1 C3P      0.155000
     31 HN41       -1.4510    1.6000  -10.0300 hn        1 C3P      0.386800
     32 HN42       -2.9020    2.3490   -9.7140 hn        1 C3P      0.386800
     33 H4'         0.9900    3.1860   -1.7260 h1        1 C3P      0.089700
@<TRIPOS>BOND
     1    1    2 1   
     2    1    3 1   
     3    1    4 1   
     4    1   10 1   
     5    5    6 1   
     6    5   22 1   
     7    6    7 1   
     8    6   23 1   
     9    6   24 1   
    10    7    8 1   
    11    7    9 1   
    12    7   33 1   
    13    8   13 1   
    14    9   10 1   
    15    9   11 1   
    16    9   25 1   
    17   11   12 1   
    18   11   13 1   
    19   11   26 1   
    20   12   27 1   
    21   13   14 1   
    22   13   28 1   
    23   14   15 1   
    24   14   19 1   
    25   15   16 1   
    26   15   20 2   
    27   16   17 2   
    28   17   18 1   
    29   17   21 1   
    30   18   19 2   
    31   18   29 1   
    32   19   30 1   
    33   21   31 1   
    34   21   32 1   
@<TRIPOS>SUBSTRUCTURE
     1 C3P         1 TEMP              0 ****  ****    0 ROOT
