@<TRIPOS>MOLECULE
molecule
   34    35     1     0     0
SMALL
bcc


@<TRIPOS>ATOM
      1 P            0.0000     0.0000     0.0000 p5         1 C3P       1.158900
      2 O1P          1.6090     0.0000     0.0000 o          1 C3P      -0.761833
      3 O2P         -0.5370     0.0000     1.5180 o          1 C3P      -0.761833
      4 O3P         -0.4930    -1.2090    -0.6960 o          1 C3P      -0.761833
      5 O5'         -3.4750    -0.1110    -3.9090 oh         1 C3P      -0.634800
      6 C5'         -2.8770    -0.1530    -2.6130 c3         1 C3P       0.137400
      7 C4'         -2.5410     1.2680    -2.1570 c3         1 C3P       0.124100
      8 O4'         -3.7430     2.0620    -2.0640 os         1 C3P      -0.406600
      9 C3'         -1.9650     1.2550    -0.7240 c3         1 C3P       0.159100
     10 O3'         -0.5390     1.3130    -0.7590 os         1 C3P      -0.500200
     11 C2'         -2.5460     2.5320    -0.0740 c3         1 C3P       0.098100
     12 O2'         -1.4940     3.4180     0.3160 oh         1 C3P      -0.565800
     13 C1'         -3.4050     3.1620    -1.1910 c3         1 C3P       0.262500
     14 N1          -4.6200     3.7570    -0.6270 n          1 C3P      -0.324000
     15 C2          -5.4770     2.9900     0.0720 c          1 C3P       0.828900
     16 N3          -6.5890     3.5050     0.5950 nc         1 C3P      -0.708100
     17 C4          -6.8780     4.7900     0.4420 cd         1 C3P       0.406500
     18 C5          -6.0030     5.6190    -0.2880 cd         1 C3P      -0.408600
     19 C6          -4.8740     5.0820    -0.8110 cc         1 C3P       0.064600
     20 O2          -5.2330     1.8060     0.2260 o          1 C3P      -0.562500
     21 N4          -8.0290     5.3100     0.9880 nz         1 C3P      -0.698600
     22 HO5'        -3.4950    -0.9800    -4.2750 ho         1 C3P       0.391000
     23 H5'1        -1.9690    -0.7420    -2.6540 h1         1 C3P       0.071200
     24 H5'2        -3.5680    -0.6030    -1.9110 h1         1 C3P       0.071200
     25 H3'         -2.3020     0.3740    -0.1910 h1         1 C3P       0.105700
     26 H2'1        -3.1660     2.2730     0.7760 h1         1 C3P       0.073700
     27 HO2'        -1.6320     3.6970     1.2060 ho         1 C3P       0.390000
     28 H1'         -2.8300     3.9060    -1.7310 h2         1 C3P       0.074700
     29 H5          -6.2250     6.6710    -0.4220 ha         1 C3P       0.126000
     30 H6          -4.1850     5.6980    -1.3760 h4         1 C3P       0.171000
     31 HN41        -8.5620     4.5740     1.4060 hn         1 C3P       0.436800
     32 HN42        -8.5710     5.7470     0.2690 hn         1 C3P       0.436800
     33 H43         -7.7910     5.9880     1.6850 hn         1 C3P       0.436800
     34 H4'         -1.8380     1.7320    -2.8380 h1         1 C3P       0.068700
@<TRIPOS>BOND
     1     1     2 1
     2     1     3 1
     3     1     4 1
     4     1    10 1
     5     5     6 1
     6     5    22 1
     7     6     7 1
     8     6    23 1
     9     6    24 1
    10     7     8 1
    11     7     9 1
    12     7    34 1
    13     8    13 1
    14     9    10 1
    15     9    11 1
    16     9    25 1
    17    11    12 1
    18    11    13 1
    19    11    26 1
    20    12    27 1
    21    13    14 1
    22    13    28 1
    23    14    15 1
    24    14    19 1
    25    15    16 1
    26    15    20 2
    27    16    17 2
    28    17    18 1
    29    17    21 1
    30    18    19 2
    31    18    29 1
    32    19    30 1
    33    21    31 1
    34    21    32 1
    35    33    21 1
@<TRIPOS>SUBSTRUCTURE
     1 C3P         1 TEMP              0 ****  ****    0 ROOT
