@<TRIPOS>MOLECULE
C3Q
   89    93     1     0     0
SMALL
bcc


@<TRIPOS>ATOM
      1 C1           0.0000     0.0000     0.0000 c3         1 C3Q      -0.015400
      2 C2           1.5300     0.0000     0.0000 c3         1 C3Q      -0.040033
      3 C3           2.0410     0.0000     1.4420 c3         1 C3Q      -0.015400
      4 C4           2.0400    -1.2490    -0.7220 c3         1 C3Q      -0.016733
      5 C5          -0.5090    -1.2500     0.7220 c3         1 C3Q      -0.040033
      6 C6           0.0020    -1.2500     2.1640 c3         1 C3Q      -0.015400
      7 C7           0.0000    -2.4990     0.0000 c3         1 C3Q      -0.016733
      8 C8           1.5310    -1.2500     2.1630 c3         1 C3Q      -0.040033
      9 C9           1.5310    -2.4980    -0.0010 c3         1 C3Q      -0.062000
     10 C10          2.0410    -2.4980     1.4420 c3         1 C3Q      -0.016733
     11 C11         -2.1730   -21.0450    -3.0920 ca         1 C3Q      -0.145000
     12 C12         -0.8350   -20.7360    -3.3210 ca         1 C3Q      -0.066000
     13 C13          0.0280   -20.5400    -2.2870 ca         1 C3Q      -0.124000
     14 C14         -2.6600   -21.1590    -1.8080 ca         1 C3Q       0.036600
     15 C15         -1.7880   -20.9600    -0.7160 ca         1 C3Q      -0.052000
     16 C16         -0.4290   -20.6470    -0.9620 ca         1 C3Q       0.052000
     17 C17          0.4400   -20.4490     0.1250 ca         1 C3Q      -0.157500
     18 C18         -0.0350   -20.5620     1.3960 ca         1 C3Q       0.034000
     19 C19         -1.3720   -20.8700     1.6370 ca         1 C3Q      -0.153000
     20 C20         -2.2430   -21.0680     0.6080 ca         1 C3Q      -0.012000
     21 C21         -4.8790   -20.4490    -2.1820 c3         1 C3Q       0.179600
     22 C22         -4.3240   -22.8050    -2.1040 c3         1 C3Q       0.179600
     23 C23          2.0340    -6.2270    -0.7120 c          1 C3Q       0.571100
     24 N2           1.7100    -7.4510    -0.2520 ns         1 C3Q      -0.205900
     25 C24          2.1980    -8.6470    -0.9420 c3         1 C3Q       0.050000
     26 C25          1.6890    -9.8960    -0.2210 c3         1 C3Q      -0.042400
     27 C26          2.1990   -11.1460    -0.9430 c3         1 C3Q      -0.022400
     28 C27          1.6900   -12.3950    -0.2220 c3         1 C3Q      -0.028400
     29 C28          2.2000   -13.6440    -0.9430 c3         1 C3Q      -0.028400
     30 C29          1.6910   -14.8940    -0.2220 c3         1 C3Q      -0.024400
     31 C30          2.2020   -16.1420    -0.9440 c3         1 C3Q      -0.040400
     32 C31          1.6920   -17.3920    -0.2230 c3         1 C3Q       0.225800
     33 N3           2.1800   -18.5880    -0.9130 n7         1 C3Q      -0.589100
     34 S1           2.1350   -20.0590    -0.1550 sy         1 C3Q       1.048200
     35 O2           2.6150   -21.0100    -1.0940 o          1 C3Q      -0.589300
     36 O3           2.7310    -6.1150    -1.6980 o          1 C3Q      -0.647100
     37 H1          -0.3610    -0.0000    -1.0210 hc         1 C3Q       0.014033
     38 H1A         -0.3610     0.8850     0.5110 hc         1 C3Q       0.014033
     39 H2           1.8910     0.8850    -0.5110 hc         1 C3Q       0.022033
     40 H3           1.6790     0.8840     1.9530 hc         1 C3Q       0.014033
     41 H3A          3.1240     0.0010     1.4420 hc         1 C3Q       0.014033
     42 H4           1.6790    -1.2480    -1.7430 hc         1 C3Q       0.018367
     43 H4A          3.1240    -1.2480    -0.7220 hc         1 C3Q       0.018367
     44 H5          -1.5930    -1.2500     0.7230 hc         1 C3Q       0.022033
     45 H6          -0.3590    -2.1340     2.6750 hc         1 C3Q       0.014033
     46 H6A         -0.3590    -0.3650     2.6760 hc         1 C3Q       0.014033
     47 H7          -0.3610    -2.5000    -1.0210 hc         1 C3Q       0.018367
     48 H7A         -0.3600    -3.3840     0.5110 hc         1 C3Q       0.018367
     49 H8           1.8930    -1.2500     3.1840 hc         1 C3Q       0.022033
     50 H10          3.1250    -2.4980     1.4420 hc         1 C3Q       0.018367
     51 H10A         1.6810    -3.3830     1.9520 hc         1 C3Q       0.018367
     52 H11         -2.8390   -21.1960    -3.9330 ha         1 C3Q       0.111000
     53 H12         -0.4750   -20.6520    -4.3390 ha         1 C3Q       0.103000
     54 H13          1.0650   -20.3000    -2.4850 ha         1 C3Q       0.133000
     55 H18          0.6360   -20.4090     2.2330 ha         1 C3Q       0.126000
     56 H19         -1.7250   -20.9540     2.6570 ha         1 C3Q       0.109000
     57 H20         -3.2800   -21.3080     0.8100 ha         1 C3Q       0.122000
     58 H22         -4.4820   -19.4630    -1.9720 h1         1 C3Q       0.005367
     59 H22A        -5.8860   -20.5250    -1.7890 h1         1 C3Q       0.005367
     60 H22B        -4.8960   -20.6100    -3.2530 h1         1 C3Q       0.005367
     61 H23         -3.5300   -23.4940    -1.8420 h1         1 C3Q       0.005367
     62 H23A        -4.4720   -22.8170    -3.1770 h1         1 C3Q       0.005367
     63 H23B        -5.2390   -23.1040    -1.6090 h1         1 C3Q       0.005367
     64 HN25         1.1340    -7.5430     0.5620 hn         1 C3Q       0.172500
     65 H26          3.2810    -8.6460    -0.9430 h1         1 C3Q       0.027200
     66 H26A         1.8360    -8.6470    -1.9630 h1         1 C3Q       0.027200
     67 H27          2.0510    -9.8960     0.8000 hc         1 C3Q       0.016200
     68 H27A         0.6060    -9.8970    -0.2200 hc         1 C3Q       0.016200
     69 H28          1.8380   -11.1460    -1.9640 hc         1 C3Q       0.019200
     70 H28A         3.2830   -11.1460    -0.9430 hc         1 C3Q       0.019200
     71 H29          2.0510   -12.3960     0.8000 hc         1 C3Q       0.014700
     72 H29A         0.6070   -12.3960    -0.2210 hc         1 C3Q       0.014700
     73 H30          3.2830   -13.6440    -0.9440 hc         1 C3Q       0.016700
     74 H30A         1.8390   -13.6440    -1.9640 hc         1 C3Q       0.016700
     75 H31          0.6070   -14.8940    -0.2220 hc         1 C3Q       0.016700
     76 H31A         2.0520   -14.8940     0.7990 hc         1 C3Q       0.016700
     77 H32          1.8410   -16.1420    -1.9650 hc         1 C3Q       0.019200
     78 H32A         3.2850   -16.1420    -0.9430 hc         1 C3Q       0.019200
     79 H33          2.0540   -17.3920     0.7990 h1         1 C3Q       0.016200
     80 H33A         0.6090   -17.3920    -0.2220 h1         1 C3Q       0.016200
     81 HN34         2.5690   -18.5110    -1.8320 hn         1 C3Q       0.350800
     82 C33          2.0410    -3.7470    -0.7220 c3         1 C3Q      -0.006400
     83 H39          1.8930    -4.9970     1.0200 hc         1 C3Q       0.035200
     84 H39A         0.4490    -4.9970    -0.0010 hc         1 C3Q       0.035200
     85 H48          3.1240    -3.7460    -0.7230 hc         1 C3Q       0.032700
     86 H49          1.6800    -3.7470    -1.7430 hc         1 C3Q       0.032700
     87 C32          1.5320    -4.9960    -0.0010 c3         1 C3Q      -0.116400
     88 N1          -4.0010   -21.4670    -1.5890 nh         1 C3Q      -0.410000
     89 O1           2.7190   -19.8690     1.1270 o          1 C3Q      -0.589300
@<TRIPOS>BOND
     1     1     2 1   
     2     1     5 1   
     3     1    37 1   
     4     1    38 1   
     5     2     3 1   
     6     2     4 1   
     7     2    39 1   
     8     3     8 1   
     9     3    40 1   
    10     3    41 1   
    11     4     9 1   
    12     4    42 1   
    13     4    43 1   
    14     5     6 1   
    15     5     7 1   
    16     5    44 1   
    17     6     8 1   
    18     6    45 1   
    19     6    46 1   
    20     7     9 1   
    21     7    47 1   
    22     7    48 1   
    23     8    10 1   
    24     8    49 1   
    25     9    10 1   
    26     9    82 1   
    27    10    50 1   
    28    10    51 1   
    29    11    12 ar  
    30    11    14 ar  
    31    11    52 1   
    32    12    13 ar  
    33    12    53 1   
    34    13    16 ar  
    35    13    54 1   
    36    14    15 ar  
    37    14    88 1   
    38    15    16 ar  
    39    15    20 ar  
    40    16    17 ar  
    41    17    18 ar  
    42    17    34 1   
    43    18    19 ar  
    44    18    55 1   
    45    19    20 ar  
    46    19    56 1   
    47    20    57 1   
    48    21    58 1   
    49    21    59 1   
    50    21    60 1   
    51    21    88 1   
    52    22    61 1   
    53    22    62 1   
    54    22    63 1   
    55    22    88 1   
    56    23    24 1   
    57    23    36 2   
    58    23    87 1   
    59    24    25 1   
    60    24    64 1   
    61    25    26 1   
    62    25    65 1   
    63    25    66 1   
    64    26    27 1   
    65    26    67 1   
    66    26    68 1   
    67    27    28 1   
    68    27    69 1   
    69    27    70 1   
    70    28    29 1   
    71    28    71 1   
    72    28    72 1   
    73    29    30 1   
    74    29    73 1   
    75    29    74 1   
    76    30    31 1   
    77    30    75 1   
    78    30    76 1   
    79    31    32 1   
    80    31    77 1   
    81    31    78 1   
    82    32    33 1   
    83    32    79 1   
    84    32    80 1   
    85    33    34 1   
    86    33    81 1   
    87    34    35 2   
    88    34    89 2   
    89    82    85 1   
    90    82    86 1   
    91    82    87 1   
    92    83    87 1   
    93    84    87 1   
@<TRIPOS>SUBSTRUCTURE
     1 C3Q         1 TEMP              0 ****  ****    0 ROOT
