@<TRIPOS>MOLECULE
molecule
   72    72     1     0     0
SMALL
bcc


@<TRIPOS>ATOM
      1 C10          0.0000     0.0000     0.0000 c3         1 C3R      -0.082400
      2 C13         -2.7370     1.2130    -1.9820 c3         1 C3R      -0.085100
      3 C15         -3.7120     3.1130    -0.3390 c2         1 C3R      -0.162400
      4 C17         -3.9410     4.1530    -1.1040 c2         1 C3R      -0.118200
      5 C20         -5.4900     4.3360    -3.0060 c          1 C3R       0.595100
      6 C21         -6.8410     4.0550    -3.6110 c3         1 C3R      -0.167700
      7 C22         -7.1140     2.5510    -3.5750 c3         1 C3R      -0.075100
      8 C01          3.5440    -0.2870     1.4510 c3         1 C3R      -0.085100
      9 C02          2.0410     0.0000     1.4420 c3         1 C3R      -0.047500
     10 C03          1.7820     1.3460     2.0670 c2         1 C3R      -0.111200
     11 C04          0.9260     1.4580     3.0520 c2         1 C3R      -0.241200
     12 C05          0.6670     2.8050     3.6750 c3         1 C3R       0.179300
     13 O06          1.5540     3.7710     3.1090 oh         1 C3R      -0.564800
     14 C07         -0.7810     3.2230     3.4050 c3         1 C3R       0.102100
     15 O08         -1.0090     4.5260     3.9430 oh         1 C3R      -0.572800
     16 C09          1.5300     0.0000     0.0000 c3         1 C3R      -0.074400
     17 C11         -0.5100     1.1640    -0.8510 c3         1 C3R      -0.088400
     18 C12         -2.0160     1.3300    -0.6370 c3         1 C3R      -0.083700
     19 C14         -2.2960     2.7050    -0.0270 c3         1 C3R       0.197300
     20 C16         -4.8660     2.3280     0.2280 c3         1 C3R      -0.045900
     21 C18         -5.3500     4.4910    -1.5140 c3         1 C3R      -0.148500
     22 C19         -5.6630     5.9370    -1.1210 c3         1 C3R      -0.074100
     23 C23         -6.8620     4.5440    -5.0610 c3         1 C3R       0.181100
     24 O24         -6.6080     5.9490    -5.0940 os         1 C3R      -0.386600
     25 C25         -6.0480     6.4090    -6.3250 c3         1 C3R       0.135700
     26 O28        -10.5880     4.8380    -5.2060 o          1 C3R      -0.848300
     27 O29         -8.9680     5.8220    -4.0730 o          1 C3R      -0.848300
     28 O31         -2.1170     2.6410     1.4130 os         1 C3R      -0.427900
     29 C32         -1.0290     3.2410     1.9190 c          1 C3R       0.635100
     30 O33         -0.2490     3.7980     1.1840 o          1 C3R      -0.509000
     31 H2          -0.3610    -0.9340    -0.4130 hc         1 C3R       0.040700
     32 H1          -0.3610     0.1100     1.0150 hc         1 C3R       0.040700
     33 H4          -2.5830     2.1190    -2.5540 hc         1 C3R       0.042033
     34 H3          -2.3420     0.3670    -2.5310 hc         1 C3R       0.042033
     35 H5          -3.7980     1.0700    -1.8110 hc         1 C3R       0.042033
     36 H6          -3.1100     4.7180    -1.5100 ha         1 C3R       0.140000
     37 H7          -7.6050     4.5740    -3.0450 hc         1 C3R       0.134700
     38 H10         -6.3020     2.0490    -3.0620 hc         1 C3R       0.033033
     39 H8          -8.0430     2.3640    -3.0500 hc         1 C3R       0.033033
     40 H9          -7.1890     2.1730    -4.5880 hc         1 C3R       0.033033
     41 H14          3.7250    -1.2800     1.0600 hc         1 C3R       0.033367
     42 H13          3.9180    -0.2250     2.4660 hc         1 C3R       0.033367
     43 H15          4.0550     0.4430     0.8340 hc         1 C3R       0.033367
     44 H16          1.5250    -0.7660     2.0080 hc         1 C3R       0.048700
     45 H17          2.3030     2.2230     1.7000 ha         1 C3R       0.158000
     46 H18          0.4050     0.5820     3.4180 ha         1 C3R       0.126000
     47 H19          0.8320     2.7460     4.7440 h1         1 C3R       0.035700
     48 H20          2.1220     4.1090     3.7820 ho         1 C3R       0.396000
     49 H21         -1.4540     2.5160     3.8750 h1         1 C3R       0.051700
     50 H22         -1.4640     4.4510     4.7660 ho         1 C3R       0.402000
     51 H23          1.8910    -0.8850    -0.5110 hc         1 C3R       0.045200
     52 H24          1.8910     0.8840    -0.5110 hc         1 C3R       0.045200
     53 H25         -0.3140     0.9590    -1.8970 hc         1 C3R       0.054700
     54 H26         -0.0010     2.0750    -0.5600 hc         1 C3R       0.054700
     55 H27         -2.3740     0.5570     0.0330 hc         1 C3R       0.057700
     56 H28         -1.6100     3.4320    -0.4440 h1         1 C3R       0.085700
     57 H30         -5.5110     2.9900     0.7920 hc         1 C3R       0.040700
     58 H31         -5.4290     1.8790    -0.5810 hc         1 C3R       0.040700
     59 H29         -4.4880     1.5500     0.8800 hc         1 C3R       0.040700
     60 H32         -6.0420     3.8240    -1.0140 hc         1 C3R       0.069700
     61 H34         -5.1090     6.6130    -1.7610 hc         1 C3R       0.046367
     62 H35         -6.7240     6.1210    -1.2340 hc         1 C3R       0.046367
     63 H33         -5.3760     6.1010    -0.0890 hc         1 C3R       0.046367
     64 H36         -6.0980     4.0250    -5.6280 h1         1 C3R       0.011700
     65 H38         -6.8250     6.8640    -6.9280 h1         1 C3R       0.014700
     66 H39         -5.6170     5.5720    -6.8610 h1         1 C3R       0.014700
     67 H37         -5.2760     7.1420    -6.1190 h1         1 C3R       0.014700
     68 C26         -8.2340     4.2590    -5.6750 c3         1 C3R      -0.217400
     69 C27         -9.2900     5.0310    -4.9260 c          1 C3R       0.893600
     70 H12         -8.4460     3.1990    -5.6090 hc         1 C3R       0.035700
     71 H11         -8.2340     4.5630    -6.7150 hc         1 C3R       0.035700
     72 O30         -4.5190     4.4350    -3.7170 o          1 C3R      -0.551100
@<TRIPOS>BOND
     1    27    69 1
     2    26    69 1
     3    69    68 1
     4    68    23 1
     5     7     6 1
     6    23     6 1
     7    23    24 1
     8     6     5 1
     9    24    25 1
    10    72     5 2
    11     5    21 1
    12     2    18 1
    13    21     4 1
    14    21    22 1
    15    18    17 1
    16    18    19 1
    17     4     3 2
    18    17     1 1
    19    20     3 1
    20     3    19 1
    21     1    16 1
    22    19    28 1
    23    16     9 1
    24    28    29 1
    25     9     8 1
    26     9    10 1
    27    30    29 2
    28    29    14 1
    29    10    11 2
    30    11    12 1
    31    14    12 1
    32    14    15 1
    33    12    13 1
    34     1    31 1
    35     1    32 1
    36     2    33 1
    37     2    34 1
    38     2    35 1
    39     4    36 1
    40     6    37 1
    41     7    38 1
    42     7    39 1
    43     7    40 1
    44    68    70 1
    45    68    71 1
    46     8    41 1
    47     8    42 1
    48     8    43 1
    49     9    44 1
    50    10    45 1
    51    11    46 1
    52    12    47 1
    53    13    48 1
    54    14    49 1
    55    15    50 1
    56    16    51 1
    57    16    52 1
    58    17    53 1
    59    17    54 1
    60    18    55 1
    61    19    56 1
    62    20    57 1
    63    20    58 1
    64    20    59 1
    65    21    60 1
    66    22    61 1
    67    22    62 1
    68    22    63 1
    69    23    64 1
    70    25    65 1
    71    25    66 1
    72    25    67 1
@<TRIPOS>SUBSTRUCTURE
     1 C3R         1 TEMP              0 ****  ****    0 ROOT
