@<TRIPOS>MOLECULE
C3S
   77    80     1     0     0
SMALL
bcc


@<TRIPOS>ATOM
      1 C65        -0.3000   -0.4180   -0.5480 c3        1 C3S     -0.089600
      2 C63         1.1450   -0.3330   -0.0990 c3        1 C3S     -0.068700
      3 C69         1.2140   -0.1770    1.4050 c3        1 C3S     -0.089600
      4 C60         1.9120   -1.5610   -0.5670 c3        1 C3S     -0.076400
      5 C57         3.4120   -1.3520   -0.5340 c3        1 C3S     -0.079400
      6 C54         4.1420   -2.5790   -1.0390 c3        1 C3S     -0.080400
      7 C48         5.6590   -2.4030   -0.9920 c3        1 C3S     -0.054700
      8 C50         6.1490   -2.6400    0.4240 c3        1 C3S     -0.090100
      9 C38         6.3310   -3.3460   -1.9840 c3        1 C3S     -0.055700
     10 C35         5.8600   -3.0940   -3.4330 c3        1 C3S     -0.077400
     11 C29         7.8760   -3.2790   -2.0830 c3        1 C3S     -0.045000
     12 C26         8.6490   -4.1010   -1.0630 c3        1 C3S     -0.064400
     13 C40         8.3360   -1.8310   -2.0680 c3        1 C3S     -0.081100
     14 C30         8.1100   -3.9620   -3.4540 c3        1 C3S     -0.062700
     15 C32         7.0510   -3.3480   -4.3590 c3        1 C3S     -0.074400
     16 C18         9.5590   -3.9160   -3.8890 c3        1 C3S     -0.047700
     17 C15         9.7250   -4.5850   -5.2460 c3        1 C3S     -0.031200
     18 C20        10.4060   -4.6520   -2.8410 c3        1 C3S     -0.049700
     19 C23        10.1250   -4.1600   -1.4250 c3        1 C3S     -0.075400
     20 C22        11.9120   -4.5930   -3.1860 c3        1 C3S     -0.004800
     21 C44        12.4950   -3.2150   -2.8840 c3        1 C3S     -0.081100
     22 C12        12.1300   -4.9020   -4.6470 c2        1 C3S     -0.070400
     23 C9         13.5270   -5.2000   -5.0760 c3        1 C3S     -0.060200
     24 C13        11.1390   -4.8850   -5.5520 c2        1 C3S     -0.212200
     25 C1         12.6350   -5.6490   -2.3330 c3        1 C3S     -0.061400
     26 C4         14.0820   -5.8350   -2.7180 c3        1 C3S     -0.121400
     27 C7         14.2040   -6.2470   -4.1860 c3        1 C3S      0.231100
     28 O6         15.5420   -6.3380   -4.5550 os        1 C3S     -0.606500
     29 S1         16.3930   -7.8440   -4.4150 s6        1 C3S      1.697300
     30 O3         15.5950   -8.6970   -5.1770 o         1 C3S     -0.753867
     31 O2         17.6310   -7.5060   -4.9520 o         1 C3S     -0.753867
     32 O4         16.3520   -8.0720   -3.0390 o         1 C3S     -0.753867
     33 H651       -0.7850   -1.3340   -0.1320 hc        1 C3S      0.031700
     34 H652       -0.8690    0.4750   -0.1950 hc        1 C3S      0.031700
     35 H653       -0.3610   -0.4600   -1.6620 hc        1 C3S      0.031700
     36 H63         1.6090    0.5790   -0.5730 hc        1 C3S      0.045700
     37 H691        0.7630   -1.0630    1.9130 hc        1 C3S      0.031700
     38 H692        2.2750   -0.0790    1.7410 hc        1 C3S      0.031700
     39 H693        0.6550    0.7350    1.7260 hc        1 C3S      0.031700
     40 H601        1.6010   -1.8090   -1.6170 hc        1 C3S      0.039200
     41 H602        1.6390   -2.4380    0.0750 hc        1 C3S      0.039200
     42 H571        3.7370   -1.1170    0.5140 hc        1 C3S      0.039700
     43 H572        3.6820   -0.4670   -1.1690 hc        1 C3S      0.039700
     44 H541        3.8540   -3.4710   -0.4240 hc        1 C3S      0.040700
     45 H542        3.8090   -2.7840   -2.0910 hc        1 C3S      0.040700
     46 H48         5.9020   -1.3430   -1.2860 hc        1 C3S      0.048700
     47 H501        6.1810   -3.7330    0.6510 hc        1 C3S      0.033367
     48 H502        5.4710   -2.1470    1.1610 hc        1 C3S      0.033367
     49 H503        7.1740   -2.2200    0.5640 hc        1 C3S      0.033367
     50 H38         6.0550   -4.3980   -1.6940 hc        1 C3S      0.045700
     51 H351        5.0140   -3.7790   -3.6860 hc        1 C3S      0.035200
     52 H352        5.4970   -2.0430   -3.5490 hc        1 C3S      0.035200
     53 H261        8.2260   -5.1380   -1.0220 hc        1 C3S      0.035200
     54 H262        8.5450   -3.6560   -0.0400 hc        1 C3S      0.035200
     55 H401        9.4160   -1.7470   -2.3370 hc        1 C3S      0.034033
     56 H402        8.1990   -1.3910   -1.0510 hc        1 C3S      0.034033
     57 H403        7.7450   -1.2300   -2.8010 hc        1 C3S      0.034033
     58 H30         7.8410   -5.0540   -3.3300 hc        1 C3S      0.045700
     59 H321        7.4180   -2.3930   -4.8100 hc        1 C3S      0.040700
     60 H322        6.7830   -4.0390   -5.1940 hc        1 C3S      0.040700
     61 H18         9.9040   -2.8500   -3.9750 hc        1 C3S      0.053700
     62 H151        9.2930   -3.9160   -6.0380 hc        1 C3S      0.035200
     63 H152        9.1370   -5.5440   -5.2710 hc        1 C3S      0.035200
     64 H20        10.1020   -5.7380   -2.8850 hc        1 C3S      0.049700
     65 H231       10.6370   -4.8480   -0.7000 hc        1 C3S      0.042200
     66 H232       10.5670   -3.1390   -1.2820 hc        1 C3S      0.042200
     67 H441       12.6110   -3.0730   -1.7820 hc        1 C3S      0.033033
     68 H442       13.5040   -3.1120   -3.3510 hc        1 C3S      0.033033
     69 H443       11.8340   -2.4090   -3.2830 hc        1 C3S      0.033033
     70 H91        13.5480   -5.5690   -6.1350 hc        1 C3S      0.052700
     71 H92        14.1370   -4.2580   -5.0450 hc        1 C3S      0.052700
     72 H13        11.3440   -5.1250   -6.6080 ha        1 C3S      0.119000
     73 H11        12.0980   -6.6290   -2.4400 hc        1 C3S      0.031700
     74 H12        12.5770   -5.3470   -1.2540 hc        1 C3S      0.031700
     75 H41        14.6580   -4.8880   -2.5530 hc        1 C3S      0.061200
     76 H42        14.5570   -6.6320   -2.0850 hc        1 C3S      0.061200
     77 H7         13.6960   -7.2460   -4.3370 h1        1 C3S      0.033700
@<TRIPOS>BOND
     1    1    2 1   
     2    1   33 1   
     3    1   34 1   
     4    1   35 1   
     5    2    3 1   
     6    2    4 1   
     7    2   36 1   
     8    3   37 1   
     9    3   38 1   
    10    3   39 1   
    11    4    5 1   
    12    4   40 1   
    13    4   41 1   
    14    5    6 1   
    15    5   42 1   
    16    5   43 1   
    17    6    7 1   
    18    6   44 1   
    19    6   45 1   
    20    7    8 1   
    21    7    9 1   
    22    7   46 1   
    23    8   47 1   
    24    8   48 1   
    25    8   49 1   
    26    9   10 1   
    27    9   11 1   
    28    9   50 1   
    29   10   15 1   
    30   10   51 1   
    31   10   52 1   
    32   11   12 1   
    33   11   13 1   
    34   11   14 1   
    35   12   19 1   
    36   12   53 1   
    37   12   54 1   
    38   13   55 1   
    39   13   56 1   
    40   13   57 1   
    41   14   15 1   
    42   14   16 1   
    43   14   58 1   
    44   15   59 1   
    45   15   60 1   
    46   16   17 1   
    47   16   18 1   
    48   16   61 1   
    49   17   24 1   
    50   17   62 1   
    51   17   63 1   
    52   18   19 1   
    53   18   20 1   
    54   18   64 1   
    55   19   65 1   
    56   19   66 1   
    57   20   21 1   
    58   20   22 1   
    59   20   25 1   
    60   21   67 1   
    61   21   68 1   
    62   21   69 1   
    63   22   23 1   
    64   22   24 2   
    65   23   27 1   
    66   23   70 1   
    67   23   71 1   
    68   24   72 1   
    69   25   26 1   
    70   25   73 1   
    71   25   74 1   
    72   26   27 1   
    73   26   75 1   
    74   26   76 1   
    75   27   28 1   
    76   27   77 1   
    77   28   29 1   
    78   29   30 1   
    79   29   31 1   
    80   29   32 1   
@<TRIPOS>SUBSTRUCTURE
     1 C3S         1 TEMP              0 ****  ****    0 ROOT
