@<TRIPOS>MOLECULE
molecule
   77    80     1     0     0
SMALL
bcc


@<TRIPOS>ATOM
      1 C65          0.0000     0.0000     0.0000 c3         1 C3S      -0.087600
      2 C63          1.5300     0.0000     0.0000 c3         1 C3S      -0.077700
      3 C69          2.0390     0.0000     1.4430 c3         1 C3S      -0.087600
      4 C60          2.0400    -1.2480    -0.7210 c3         1 C3S      -0.076400
      5 C57          3.5700    -1.2490    -0.7210 c3         1 C3S      -0.086400
      6 C54          4.0810    -2.4960    -1.4420 c3         1 C3S      -0.079400
      7 C48          5.6110    -2.4960    -1.4420 c3         1 C3S      -0.067700
      8 C50          6.1200    -2.4970     0.0010 c3         1 C3S      -0.097100
      9 C38          6.1210    -3.7450    -2.1630 c3         1 C3S      -0.053700
     10 C35          5.6720    -3.7290    -3.6450 c3         1 C3S      -0.082400
     11 C29          7.6470    -3.7470    -2.2010 c3         1 C3S      -0.064000
     12 C26          8.3860    -4.4800    -1.0810 c3         1 C3S      -0.064400
     13 C40          8.1690    -2.3160    -2.3200 c3         1 C3S      -0.096100
     14 C30          7.9670    -4.4710    -3.5370 c3         1 C3S      -0.066700
     15 C32          6.9690    -3.8130    -4.4950 c3         1 C3S      -0.077400
     16 C18          9.4330    -4.2410    -3.8510 c3         1 C3S      -0.057700
     17 C15          9.7800    -4.9010    -5.1910 c3         1 C3S      -0.034200
     18 C20         10.2550    -4.9070    -2.7390 c3         1 C3S      -0.051700
     19 C23          9.8960    -4.3830    -1.3520 c3         1 C3S      -0.080400
     20 C22         11.7410    -4.7190    -2.9900 c3         1 C3S      -0.017800
     21 C44         12.1120    -3.3470    -2.4210 c3         1 C3S      -0.087100
     22 C12         12.1220    -4.7410    -4.4400 c2         1 C3S      -0.090400
     23 C9          13.5990    -4.6690    -4.7880 c3         1 C3S      -0.045200
     24 C13         11.2620    -4.8170    -5.4130 c2         1 C3S      -0.192200
     25 C1          12.5490    -5.7790    -2.2370 c3         1 C3S      -0.062400
     26 C4          14.0400    -5.5600    -2.4970 c3         1 C3S      -0.095400
     27 C7          14.3370    -5.7430    -3.9860 c3         1 C3S       0.172100
     28 O6          15.7430    -5.6220    -4.2090 os         1 C3S      -0.581500
     29 S1          16.2760    -7.0290    -4.4360 s6         1 C3S       1.557300
     30 O3          15.7810    -7.4880    -5.8000 o          1 C3S      -0.741533
     31 O2          17.6850    -6.8950    -4.5610 o          1 C3S      -0.741533
     32 O4          15.6100    -7.8510    -3.4890 o          1 C3S      -0.741533
     33 H651        -0.3610    -0.8600     0.5500 hc         1 C3S       0.032200
     34 H652        -0.3610     0.9070     0.4700 hc         1 C3S       0.032200
     35 H653        -0.3610    -0.0460    -1.0200 hc         1 C3S       0.032200
     36 H63          1.8910     0.8850    -0.5100 hc         1 C3S       0.047700
     37 H691         3.0380     0.4180     1.4730 hc         1 C3S       0.032200
     38 H692         2.0610    -1.0160     1.8180 hc         1 C3S       0.032200
     39 H693         1.3780     0.5980     2.0590 hc         1 C3S       0.032200
     40 H601         1.6800    -1.2470    -1.7420 hc         1 C3S       0.040200
     41 H602         1.6790    -2.1320    -0.2110 hc         1 C3S       0.040200
     42 H571         3.9320    -0.3640    -1.2310 hc         1 C3S       0.043200
     43 H572         3.9310    -1.2490     0.3010 hc         1 C3S       0.043200
     44 H541         3.7200    -2.4960    -2.4630 hc         1 C3S       0.040700
     45 H542         3.7200    -3.3810    -0.9320 hc         1 C3S       0.040700
     46 H48          5.9720    -1.6110    -1.9520 hc         1 C3S       0.056700
     47 H501         5.6960    -1.6560     0.5350 hc         1 C3S       0.036367
     48 H502         7.2000    -2.4180     0.0030 hc         1 C3S       0.036367
     49 H503         5.8250    -3.4190     0.4880 hc         1 C3S       0.036367
     50 H38          5.7590    -4.6410    -1.6730 hc         1 C3S       0.051700
     51 H351         5.1450    -2.8080    -3.8630 hc         1 C3S       0.038200
     52 H352         5.0390    -4.5840    -3.8490 hc         1 C3S       0.038200
     53 H261         8.1570    -4.0160    -0.1300 hc         1 C3S       0.038700
     54 H262         8.0860    -5.5210    -1.0670 hc         1 C3S       0.038700
     55 H401         9.2220    -2.3360    -2.5730 hc         1 C3S       0.038700
     56 H402         7.6210    -1.7950    -3.0950 hc         1 C3S       0.038700
     57 H403         8.0350    -1.8030    -1.3750 hc         1 C3S       0.038700
     58 H30          7.7610    -5.5310    -3.4480 hc         1 C3S       0.056700
     59 H321         7.3060    -2.8230    -4.7760 hc         1 C3S       0.044200
     60 H322         6.8130    -4.4350    -5.3690 hc         1 C3S       0.044200
     61 H18          9.6460    -3.1800    -3.8900 hc         1 C3S       0.062700
     62 H151         9.2650    -4.3840    -5.9910 hc         1 C3S       0.042200
     63 H152         9.4770    -5.9410    -5.1700 hc         1 C3S       0.042200
     64 H20         10.0450    -5.9690    -2.7590 hc         1 C3S       0.051700
     65 H231        10.4250    -4.9660    -0.6080 hc         1 C3S       0.046200
     66 H232        10.2000    -3.3460    -1.2780 hc         1 C3S       0.046200
     67 H441        11.3840    -2.6130    -2.7450 hc         1 C3S       0.032700
     68 H442        13.0950    -3.0620    -2.7770 hc         1 C3S       0.032700
     69 H443        12.1200    -3.3940    -1.3390 hc         1 C3S       0.032700
     70 H91         13.9860    -3.6910    -4.5280 hc         1 C3S       0.058200
     71 H92         13.7320    -4.8500    -5.8470 hc         1 C3S       0.058200
     72 H13         11.6330    -4.8200    -6.4310 ha         1 C3S       0.126000
     73 H11         12.3530    -5.6940    -1.1750 hc         1 C3S       0.043200
     74 H12         12.2630    -6.7640    -2.5850 hc         1 C3S       0.043200
     75 H41         14.6130    -6.2810    -1.9260 hc         1 C3S       0.056200
     76 H42         14.3140    -4.5560    -2.1970 hc         1 C3S       0.056200
     77 H7          14.0000    -6.7220    -4.3030 h1         1 C3S       0.098700
@<TRIPOS>BOND
     1     1     2 1
     2     1    33 1
     3     1    34 1
     4     1    35 1
     5     2     3 1
     6     2     4 1
     7     2    36 1
     8     3    37 1
     9     3    38 1
    10     3    39 1
    11     4     5 1
    12     4    40 1
    13     4    41 1
    14     5     6 1
    15     5    42 1
    16     5    43 1
    17     6     7 1
    18     6    44 1
    19     6    45 1
    20     7     8 1
    21     7     9 1
    22     7    46 1
    23     8    47 1
    24     8    48 1
    25     8    49 1
    26     9    10 1
    27     9    11 1
    28     9    50 1
    29    10    15 1
    30    10    51 1
    31    10    52 1
    32    11    12 1
    33    11    13 1
    34    11    14 1
    35    12    19 1
    36    12    53 1
    37    12    54 1
    38    13    55 1
    39    13    56 1
    40    13    57 1
    41    14    15 1
    42    14    16 1
    43    14    58 1
    44    15    59 1
    45    15    60 1
    46    16    17 1
    47    16    18 1
    48    16    61 1
    49    17    24 1
    50    17    62 1
    51    17    63 1
    52    18    19 1
    53    18    20 1
    54    18    64 1
    55    19    65 1
    56    19    66 1
    57    20    21 1
    58    20    22 1
    59    20    25 1
    60    21    67 1
    61    21    68 1
    62    21    69 1
    63    22    23 1
    64    22    24 2
    65    23    27 1
    66    23    70 1
    67    23    71 1
    68    24    72 1
    69    25    26 1
    70    25    73 1
    71    25    74 1
    72    26    27 1
    73    26    75 1
    74    26    76 1
    75    27    28 1
    76    27    77 1
    77    28    29 1
    78    29    30 1
    79    29    31 1
    80    29    32 1
@<TRIPOS>SUBSTRUCTURE
     1 C3S         1 TEMP              0 ****  ****    0 ROOT
