@<TRIPOS>MOLECULE
molecule
   77    79     1     0     0
SMALL
bcc


@<TRIPOS>ATOM
      1 CAC          0.0000     0.0000     0.0000 c3         1 C3T      -0.080767
      2 CBI          1.5300     0.0000     0.0000 c3         1 C3T      -0.025700
      3 CAD          2.0400     0.0000     1.4430 c3         1 C3T      -0.080767
      4 CAE          2.0410    -1.2490    -0.7220 c3         1 C3T      -0.080767
      5 CBB          2.0320     1.2310    -0.7110 ca         1 C3T      -0.062300
      6 CAM          1.6980     2.4860    -0.2370 ca         1 C3T      -0.131000
      7 CAK          2.1590     3.6150    -0.8890 ca         1 C3T      -0.111000
      8 CAL          2.8320     1.1040    -1.8300 ca         1 C3T      -0.131000
      9 CAJ          3.2920     2.2330    -2.4820 ca         1 C3T      -0.111000
     10 CBA          2.9540     3.4890    -2.0120 ca         1 C3T      -0.123300
     11 CAP          3.4560     4.7200    -2.7230 c3         1 C3T       0.163300
     12 NAV          4.7460     5.1190    -2.1560 ns         1 C3T      -0.588900
     13 CAY          5.3880     6.2020    -2.6370 c          1 C3T       0.646100
     14 OAG          4.8970     6.8450    -3.5420 o          1 C3T      -0.577100
     15 CBG          6.7120     6.6110    -2.0560 c3         1 C3T       0.044700
     16 NBH          7.2180     7.8410    -2.6500 n          1 C3T      -0.477800
     17 CAZ          7.5850     7.9830    -3.9360 c          1 C3T       0.693500
     18 OAH          7.2960     7.0960    -4.7200 o          1 C3T      -0.592500
     19 CAT          6.5160     6.9570    -0.5410 c3         1 C3T      -0.109400
     20 CAS          6.0800     8.4480    -0.7310 c3         1 C3T      -0.102400
     21 CBE          7.2940     8.8910    -1.6150 c3         1 C3T       0.093700
     22 CAR          6.9750    10.2670    -2.1880 c3         1 C3T      -0.099400
     23 CAQ          8.2680    10.9120    -2.6850 c3         1 C3T      -0.084400
     24 CBD          9.1470     9.8810    -3.3940 c3         1 C3T      -0.086700
     25 CAO         10.3470    10.5890    -4.0340 c3         1 C3T       0.144400
     26 OAI         11.1710    11.1510    -3.0110 oh         1 C3T      -0.614800
     27 CBF          8.3470     9.1590    -4.4720 c3         1 C3T       0.062700
     28 NAW          7.4420    10.0810    -5.1550 ns         1 C3T      -0.581900
     29 C            7.1220     9.8760    -6.4490 c          1 C3T       0.658100
     30 O            7.5850     8.9260    -7.0450 o          1 C3T      -0.576100
     31 CA           6.1890    10.8260    -7.1530 c3         1 C3T       0.094500
     32 CB           4.8380    10.8410    -6.4360 c3         1 C3T      -0.069400
     33 CAA          4.2270     9.4390    -6.4690 c3         1 C3T      -0.088100
     34 N            6.0010    10.3880    -8.5420 n7         1 C3T      -0.798200
     35 CAB          5.5800    11.5070    -9.3960 c3         1 C3T       0.147100
     36 H1          -0.3610     0.7780     0.6610 hc         1 C3T       0.037478
     37 H2          -0.3610     0.1840    -1.0050 hc         1 C3T       0.037478
     38 H3          -0.3610    -0.9620     0.3430 hc         1 C3T       0.037478
     39 H4           1.8090    -0.9510     1.9070 hc         1 C3T       0.037478
     40 H5           1.5600     0.7980     1.9960 hc         1 C3T       0.037478
     41 H6           3.1130     0.1530     1.4470 hc         1 C3T       0.037478
     42 H7           1.6780    -2.1340    -0.2130 hc         1 C3T       0.037478
     43 H8           3.1240    -1.2500    -0.7210 hc         1 C3T       0.037478
     44 H9           1.6810    -1.2480    -1.7440 hc         1 C3T       0.037478
     45 H10          1.0750     2.5850     0.6440 ha         1 C3T       0.136500
     46 H11          1.8960     4.5990    -0.5190 ha         1 C3T       0.135000
     47 H12          3.0970     0.1200    -2.1990 ha         1 C3T       0.136500
     48 H13          3.9170     2.1340    -3.3620 ha         1 C3T       0.135000
     49 H14          2.7420     5.5250    -2.5980 h1         1 C3T       0.060200
     50 H15          3.5760     4.5040    -3.7780 h1         1 C3T       0.060200
     51 H16          5.1510     4.5870    -1.4120 hn         1 C3T       0.313500
     52 H17          7.4390     5.8160    -2.1660 h1         1 C3T       0.074700
     53 H18          7.4470     6.8810     0.0080 hc         1 C3T       0.060200
     54 H19          5.7260     6.3640    -0.0960 hc         1 C3T       0.060200
     55 H20          5.1920     8.4590    -1.3520 hc         1 C3T       0.077200
     56 H21          6.1660     8.9450     0.2280 hc         1 C3T       0.077200
     57 H22          8.2300     8.8690    -1.0700 h1         1 C3T       0.066700
     58 H23          6.5370    10.8870    -1.4150 hc         1 C3T       0.060700
     59 H24          6.2820    10.1640    -3.0140 hc         1 C3T       0.060700
     60 H25          8.0240    11.7080    -3.3780 hc         1 C3T       0.052700
     61 H26          8.8090    11.3200    -1.8400 hc         1 C3T       0.052700
     62 H27          9.4990     9.1570    -2.6690 hc         1 C3T       0.077700
     63 H28         10.9230     9.8740    -4.6090 h1         1 C3T       0.029200
     64 H29          9.9940    11.3770    -4.6880 h1         1 C3T       0.029200
     65 H30         12.0030    11.4000    -3.3790 ho         1 C3T       0.406000
     66 H31          9.0530     8.7830    -5.2030 h1         1 C3T       0.106700
     67 H32          7.0370    10.8470    -4.6540 hn         1 C3T       0.321500
     68 H33          6.6140    11.8230    -7.1430 h1         1 C3T       0.029700
     69 H34          4.1720    11.5360    -6.9340 hc         1 C3T       0.035700
     70 H35          4.9780    11.1500    -5.4070 hc         1 C3T       0.035700
     71 H36          3.8250     9.1970    -5.4920 hc         1 C3T       0.047367
     72 H37          4.9920     8.7180    -6.7320 hc         1 C3T       0.047367
     73 H38          3.4330     9.4080    -7.2040 hc         1 C3T       0.047367
     74 H39          6.8570    10.0060    -8.8910 hn         1 C3T       0.376800
     75 H41          4.5840    11.8240    -9.1110 h1         1 C3T       0.030033
     76 H42          6.2700    12.3330    -9.2750 h1         1 C3T       0.030033
     77 H43          5.5750    11.1890   -10.4310 h1         1 C3T       0.030033
@<TRIPOS>BOND
     1     3     2 1
     2     1     2 1
     3     2     5 1
     4     2     4 1
     5     5     6 ar
     6     5     8 ar
     7     6     7 ar
     8     8     9 ar
     9     7    10 ar
    10     9    10 ar
    11    10    11 1
    12    11    12 1
    13    12    13 1
    14    14    13 2
    15    13    15 1
    16    15    19 1
    17    15    16 1
    18    19    20 1
    19    18    17 2
    20    26    25 1
    21    16    17 1
    22    16    21 1
    23    23    22 1
    24    23    24 1
    25    17    27 1
    26    22    21 1
    27    20    21 1
    28    25    24 1
    29    24    27 1
    30    27    28 1
    31    28    29 1
    32    33    32 1
    33    29    31 1
    34    29    30 2
    35    31    34 1
    36    31    32 1
    37    34    35 1
    38     1    36 1
    39     1    37 1
    40     1    38 1
    41     3    39 1
    42     3    40 1
    43     3    41 1
    44     4    42 1
    45     4    43 1
    46     4    44 1
    47     6    45 1
    48     7    46 1
    49     8    47 1
    50     9    48 1
    51    11    49 1
    52    11    50 1
    53    12    51 1
    54    15    52 1
    55    19    53 1
    56    19    54 1
    57    20    55 1
    58    20    56 1
    59    21    57 1
    60    22    58 1
    61    22    59 1
    62    23    60 1
    63    23    61 1
    64    24    62 1
    65    25    63 1
    66    25    64 1
    67    26    65 1
    68    27    66 1
    69    28    67 1
    70    31    68 1
    71    32    69 1
    72    32    70 1
    73    33    71 1
    74    33    72 1
    75    33    73 1
    76    34    74 1
    77    35    75 1
    78    35    76 1
    79    35    77 1
@<TRIPOS>SUBSTRUCTURE
     1 C3T         1 TEMP              0 ****  ****    0 ROOT
