@<TRIPOS>MOLECULE
C3V
   50    54     1     0     0
SMALL
bcc


@<TRIPOS>ATOM
      1 C4           0.0000     0.0000     0.0000 cc         1 C3V      -0.271300
      2 C5           1.4080     0.0000     0.0000 cc         1 C3V       0.416200
      3 C11         -2.6420     0.9870    -2.4830 ca         1 C3V      -0.139000
      4 C7          -0.8770    -0.0050    -1.1980 ca         1 C3V       0.017000
      5 C8          -0.7510    -1.0130    -2.1510 ca         1 C3V      -0.064000
      6 C9          -1.5670    -1.0220    -3.2670 ca         1 C3V      -0.129300
      7 C10         -2.5150    -0.0230    -3.4330 ca         1 C3V       0.057600
      8 C12         -1.8300     0.9980    -1.3710 ca         1 C3V      -0.145300
      9 C13         -1.9690     2.0920    -0.3440 c3         1 C3V       0.469200
     10 N2           0.6900     0.0000     2.0770 na         1 C3V       0.498400
     11 C3          -0.4130     0.0000     1.3000 cd         1 C3V      -0.248300
     12 C1           0.7100    -0.0000     3.5420 c3         1 C3V       0.021600
     13 C17         -3.0400    -0.8870    -5.6880 c3         1 C3V       0.172800
     14 C18         -2.6610    -2.2660    -5.1310 c3         1 C3V      -0.043400
     15 C19         -1.3990    -2.1240    -4.2800 c3         1 C3V       0.039900
     16 C20         -4.4890     0.8100    -4.5810 ca         1 C3V       0.058600
     17 C21         -4.6090     1.7740    -5.5760 ca         1 C3V      -0.132000
     18 C22         -5.7290     2.5810    -5.6050 ca         1 C3V      -0.003000
     19 C23         -6.7180     2.4270    -4.6490 ca         1 C3V      -0.009100
     20 C24         -6.6190     1.4660    -3.6410 ca         1 C3V      -0.095400
     21 C25         -5.4750     0.6540    -3.6270 ca         1 C3V      -0.129000
     22 C27         -8.6920     2.3060    -2.9550 c          1 C3V       0.678100
     23 F14         -0.7000     2.4870     0.0910 f          1 C3V      -0.222800
     24 F15         -2.6280     3.1860    -0.9140 f          1 C3V      -0.222800
     25 N16         -3.3590    -0.0150    -4.5500 nh         1 C3V      -0.226400
     26 N26         -7.6910     1.4410    -2.7670 n          1 C3V       0.039000
     27 N6           1.8140     0.0000     1.2420 nd         1 C3V      -0.648800
     28 O28         -9.7010     2.4150    -2.2830 o          1 C3V      -0.603500
     29 S29         -8.2540     3.2620    -4.3810 ss         1 C3V      -0.261500
     30 H1           2.0430    -0.0000    -0.8770 h4         1 C3V       0.007100
     31 H2          -3.3830     1.7660    -2.6190 ha         1 C3V       0.136000
     32 H3          -0.0150    -1.7960    -2.0130 ha         1 C3V       0.114000
     33 H4          -2.5420     1.7250     0.4990 h2         1 C3V       0.026700
     34 H5          -1.4390     0.0000     1.6460 h4         1 C3V       0.144000
     35 H6           1.7240    -0.1550     3.8900 h1         1 C3V       0.021700
     36 H7           0.0760    -0.7970     3.9110 h1         1 C3V       0.021700
     37 H8           0.3440     0.9510     3.9080 h1         1 C3V       0.021700
     38 H9          -3.9060    -0.9790    -6.3330 h1         1 C3V       0.022200
     39 H10         -2.2050    -0.4750    -6.2420 h1         1 C3V       0.022200
     40 H11         -2.4540    -2.9340    -5.9570 hc         1 C3V       0.025700
     41 H12         -3.4690    -2.6250    -4.5040 hc         1 C3V       0.025700
     42 H13         -1.2110    -3.0570    -3.7630 hc         1 C3V       0.023700
     43 H14         -0.5590    -1.8900    -4.9240 hc         1 C3V       0.023700
     44 H15         -3.8320     1.8900    -6.3210 ha         1 C3V       0.121000
     45 H16         -5.8330     3.3360    -6.3750 ha         1 C3V       0.117000
     46 H17         -5.3640    -0.1020    -2.8600 ha         1 C3V       0.124000
     47 H18         -6.9050     0.6850    -0.9820 h1         1 C3V       0.026033
     48 H19         -8.6650     0.5860    -1.1250 h1         1 C3V       0.026033
     49 H20         -7.6400    -0.5220    -2.0460 h1         1 C3V       0.026033
     50 C30         -7.7280     0.4850    -1.6580 c3         1 C3V       0.049300
@<TRIPOS>BOND
     1     1     2 1   
     2     1     4 1   
     3     1    11 2   
     4     2    27 2   
     5     2    30 1   
     6     3     7 ar  
     7     3     8 ar  
     8     3    31 1   
     9     4     5 ar  
    10     4     8 ar  
    11     5     6 ar  
    12     5    32 1   
    13     6     7 ar  
    14     6    15 1   
    15     7    25 1   
    16     8     9 1   
    17     9    23 1   
    18     9    24 1   
    19     9    33 1   
    20    10    11 1   
    21    10    12 1   
    22    10    27 1   
    23    11    34 1   
    24    12    35 1   
    25    12    36 1   
    26    12    37 1   
    27    13    14 1   
    28    13    25 1   
    29    13    38 1   
    30    13    39 1   
    31    14    15 1   
    32    14    40 1   
    33    14    41 1   
    34    15    42 1   
    35    15    43 1   
    36    16    17 ar  
    37    16    21 ar  
    38    16    25 1   
    39    17    18 ar  
    40    17    44 1   
    41    18    19 ar  
    42    18    45 1   
    43    19    20 ar  
    44    19    29 1   
    45    20    21 ar  
    46    20    26 1   
    47    21    46 1   
    48    22    26 1   
    49    22    28 2   
    50    22    29 1   
    51    26    50 1   
    52    47    50 1   
    53    48    50 1   
    54    49    50 1   
@<TRIPOS>SUBSTRUCTURE
     1 C3V         1 TEMP              0 ****  ****    0 ROOT
