@<TRIPOS>MOLECULE
C3W
   29    29     1     0     0
SMALL
bcc


@<TRIPOS>ATOM
      1 C3           0.0000     0.0000     0.0000 ca         1 C3W      -0.058500
      2 C2           1.3830     0.0000     0.0000 ca         1 C3W      -0.125300
      3 C8           3.5040     2.0160    -1.3400 c          1 C3W       0.584100
      4 C6           1.3850     0.0000     2.3950 ca         1 C3W      -0.140500
      5 C7           2.0750     0.0000     1.1970 ca         1 C3W      -0.058500
      6 O1           5.7330     3.1710    -0.5240 o          1 C3W      -0.515100
      7 C1           2.1360    -0.0010    -1.3050 c3         1 C3W       0.119300
      8 C5           0.0000     0.0010     2.3960 ca         1 C3W       0.092900
      9 C9           3.7550     3.4360    -1.7750 c3         1 C3W      -0.205400
     10 C10          5.0690     3.9100    -1.2100 c          1 C3W       0.493100
     11 C4          -0.6910     0.0010     1.1960 ca         1 C3W      -0.140500
     12 O3           4.8820     6.0340    -2.1870 o          1 C3W      -0.867800
     13 C11          5.5490     5.2920    -1.4980 c          1 C3W       0.900600
     14 O2           6.7230     5.7150    -0.9930 o          1 C3W      -0.867800
     15 O            4.3120     1.4440    -0.6390 o          1 C3W      -0.605100
     16 N            2.3800     1.3800    -1.7280 n          1 C3W      -0.196800
     17 C            1.4040     2.0700    -2.5740 c3         1 C3W       0.089300
     18 F           -0.6750     0.0010     3.5660 f          1 C3W      -0.136900
     19 H1          -0.5420    -0.0000    -0.9380 ha         1 C3W       0.121500
     20 H2           1.9270     0.0000     3.3320 ha         1 C3W       0.114000
     21 H3           3.1580    -0.0000     1.1970 ha         1 C3W       0.121500
     22 H4           1.5510    -0.5120    -2.0600 h1         1 C3W       0.028200
     23 H5           3.0830    -0.5110    -1.1750 h1         1 C3W       0.028200
     24 H6           2.9560     4.0720    -1.4120 hc         1 C3W       0.049200
     25 H7           3.7900     3.4820    -2.8570 hc         1 C3W       0.049200
     26 H8          -1.7750     0.0010     1.1960 ha         1 C3W       0.114000
     27 H10          1.8890     2.4110    -3.4810 h1         1 C3W       0.003700
     28 H11          0.9990     2.9210    -2.0390 h1         1 C3W       0.003700
     29 H12          0.6010     1.3890    -2.8290 h1         1 C3W       0.003700
@<TRIPOS>BOND
     1     1     2 ar  
     2     1    11 ar  
     3     1    19 1   
     4     2     5 ar  
     5     2     7 1   
     6     3     9 1   
     7     3    15 2   
     8     3    16 1   
     9     4     5 ar  
    10     4     8 ar  
    11     4    20 1   
    12     5    21 1   
    13     6    10 2   
    14     7    16 1   
    15     7    22 1   
    16     7    23 1   
    17     8    11 ar  
    18     8    18 1   
    19     9    10 1   
    20     9    24 1   
    21     9    25 1   
    22    10    13 1   
    23    11    26 1   
    24    12    13 1   
    25    13    14 1   
    26    16    17 1   
    27    17    27 1   
    28    17    28 1   
    29    17    29 1   
@<TRIPOS>SUBSTRUCTURE
     1 C3W         1 TEMP              0 ****  ****    0 ROOT
