@<TRIPOS>MOLECULE
molecule
   29    29     1     0     0
SMALL
bcc


@<TRIPOS>ATOM
      1 C3           0.0000     0.0000     0.0000 ca         1 C3W      -0.086500
      2 C2           1.3830     0.0000     0.0000 ca         1 C3W      -0.117300
      3 C8           3.5040     2.0160    -1.3400 c          1 C3W       0.653100
      4 C6           1.3850     0.0000     2.3950 ca         1 C3W      -0.174000
      5 C7           2.0750     0.0000     1.1970 ca         1 C3W      -0.086500
      6 O1           5.7330     3.1710    -0.5240 o          1 C3W      -0.491100
      7 C1           2.1360    -0.0010    -1.3050 c3         1 C3W       0.157300
      8 C5           0.0000     0.0010     2.3960 ca         1 C3W       0.122900
      9 C9           3.7550     3.4360    -1.7750 c3         1 C3W      -0.259400
     10 C10          5.0690     3.9100    -1.2100 c          1 C3W       0.462100
     11 C4          -0.6910     0.0010     1.1960 ca         1 C3W      -0.174000
     12 O3           4.8820     6.0340    -2.1870 o          1 C3W      -0.814300
     13 C11          5.5490     5.2920    -1.4980 c          1 C3W       0.810600
     14 O2           6.7230     5.7150    -0.9930 o          1 C3W      -0.814300
     15 O            4.3120     1.4440    -0.6390 o          1 C3W      -0.574100
     16 N            2.3800     1.3800    -1.7280 n          1 C3W      -0.510800
     17 C            1.4040     2.0700    -2.5740 c3         1 C3W       0.100300
     18 F           -0.6750     0.0010     3.5660 f          1 C3W      -0.151900
     19 H1          -0.5420    -0.0000    -0.9380 ha         1 C3W       0.148000
     20 H2           1.9270     0.0000     3.3320 ha         1 C3W       0.139000
     21 H3           3.1580    -0.0000     1.1970 ha         1 C3W       0.148000
     22 H4           1.5510    -0.5120    -2.0600 h1         1 C3W       0.057700
     23 H5           3.0830    -0.5110    -1.1750 h1         1 C3W       0.057700
     24 H6           2.9560     4.0720    -1.4120 hc         1 C3W       0.079700
     25 H7           3.7900     3.4820    -2.8570 hc         1 C3W       0.079700
     26 H8          -1.7750     0.0010     1.1960 ha         1 C3W       0.139000
     27 H10          1.8890     2.4110    -3.4810 h1         1 C3W       0.033367
     28 H11          0.9990     2.9210    -2.0390 h1         1 C3W       0.033367
     29 H12          0.6010     1.3890    -2.8290 h1         1 C3W       0.033367
@<TRIPOS>BOND
     1    12    13 1
     2     6    10 2
     3    13    10 1
     4    13    14 1
     5    10     9 1
     6    15     3 2
     7     9     3 1
     8     3    16 1
     9     1    11 ar
    10     1     2 ar
    11    16     7 1
    12    16    17 1
    13     7     2 1
    14    11     8 ar
    15     2     5 ar
    16     8    18 1
    17     8     4 ar
    18     5     4 ar
    19     1    19 1
    20     4    20 1
    21     5    21 1
    22     7    22 1
    23     7    23 1
    24     9    24 1
    25     9    25 1
    26    11    26 1
    27    17    27 1
    28    17    28 1
    29    17    29 1
@<TRIPOS>SUBSTRUCTURE
     1 C3W         1 TEMP              0 ****  ****    0 ROOT
