@<TRIPOS>MOLECULE
molecule
   46    50     1     0     0
SMALL
bcc


@<TRIPOS>ATOM
      1 C1           0.0000     0.0000     0.0000 ca         1 C3Z      -0.181000
      2 C2           1.3570     0.0000     0.0000 ca         1 C3Z       0.165100
      3 C3           2.0970     0.0000     1.2040 ca         1 C3Z      -0.085000
      4 C7           5.7220     0.5210     1.4650 cc         1 C3Z       0.331200
      5 C10          3.9060    -1.9420    -0.3390 ca         1 C3Z       0.045800
      6 C11          2.8560    -2.7380     0.0990 ca         1 C3Z      -0.121500
      7 C12          2.4090    -3.7820    -0.6860 ca         1 C3Z      -0.117500
      8 C13          3.0070    -4.0360    -1.9070 ca         1 C3Z      -0.133000
      9 C14          4.0530    -3.2450    -2.3460 ca         1 C3Z      -0.117500
     10 C15          4.5030    -2.1990    -1.5660 ca         1 C3Z      -0.121500
     11 C19         -0.8760     0.0020     3.5060 cc         1 C3Z      -0.041300
     12 C22         -0.5740    -0.0000     4.9820 c3         1 C3Z       0.025100
     13 C24         -1.4190     2.1660     5.9060 ca         1 C3Z      -0.118000
     14 C27         -1.2150     3.4630     6.3420 ca         1 C3Z      -0.122500
     15 C4           1.4660     0.0000     2.4300 ca         1 C3Z      -0.012000
     16 C5           3.5740    -0.0020     1.1480 cd         1 C3Z      -0.000300
     17 C6           4.4100     0.8750     1.7830 cc         1 C3Z      -0.345300
     18 N8           5.6940    -0.5220     0.6740 nd         1 C3Z      -0.503800
     19 N9           4.3580    -0.8780     0.4530 na         1 C3Z       0.158300
     20 O16          2.0210    -0.0010    -1.1850 oh         1 C3Z      -0.506100
     21 C17         -0.7040     0.0000     1.2240 ca         1 C3Z      -0.007000
     22 C18          0.0580     0.0010     2.4840 ca         1 C3Z      -0.209000
     23 N20         -2.0940     0.0010     2.9490 na         1 C3Z       0.029800
     24 N21         -1.9830     0.0040     1.5540 nc         1 C3Z      -0.276400
     25 C23         -0.3520     1.4140     5.4520 ca         1 C3Z      -0.091300
     26 C25          0.0550     4.0080     6.3180 ca         1 C3Z      -0.122000
     27 C26          1.1210     3.2570     5.8590 ca         1 C3Z      -0.122500
     28 C28          0.9180     1.9590     5.4290 ca         1 C3Z      -0.118000
     29 H1          -0.5420     0.0000    -0.9380 ha         1 C3Z       0.150000
     30 H2           6.6150     1.0260     1.8150 h4         1 C3Z       0.046100
     31 H3           2.3880    -2.5400     1.0550 ha         1 C3Z       0.145500
     32 H4           1.5900    -4.4030    -0.3450 ha         1 C3Z       0.133000
     33 H5           2.6550    -4.8560    -2.5210 ha         1 C3Z       0.129000
     34 H6           4.5190    -3.4460    -3.3030 ha         1 C3Z       0.133000
     35 H7           5.3230    -1.5800    -1.9110 ha         1 C3Z       0.145500
     36 H8           0.3190    -0.5860     5.1680 hc         1 C3Z       0.066200
     37 H9          -1.4080    -0.4330     5.5210 hc         1 C3Z       0.066200
     38 H10         -2.4140     1.7390     5.9240 ha         1 C3Z       0.128000
     39 H11         -2.0510     4.0530     6.6990 ha         1 C3Z       0.133500
     40 H12          2.0480     0.0000     3.3440 ha         1 C3Z       0.138000
     41 H13          4.1080     1.6980     2.4190 ha         1 C3Z       0.154000
     42 H14          1.7350     0.7310    -1.7060 ho         1 C3Z       0.425000
     43 H15         -2.9560    -0.0010     3.4570 hn         1 C3Z       0.331700
     44 H16          0.2140     5.0240     6.6580 ha         1 C3Z       0.133000
     45 H17          2.1160     3.6840     5.8410 ha         1 C3Z       0.133500
     46 H18          1.7540     1.3710     5.0690 ha         1 C3Z       0.128000
@<TRIPOS>BOND
     1     4    18 2
     2     4    17 1
     3    18    19 1
     4    17    16 2
     5    19    16 1
     6    19     5 1
     7    16     3 1
     8    27    26 ar
     9    27    28 ar
    10     6     5 ar
    11     6     7 ar
    12    26    14 ar
    13     5    10 ar
    14     3    15 ar
    15     3     2 ar
    16    28    25 ar
    17    20     2 1
    18     7     8 ar
    19    14    13 ar
    20    15    22 ar
    21     2     1 ar
    22    10     9 ar
    23    25    13 ar
    24    25    12 1
    25     8     9 ar
    26    22    21 ar
    27    22    11 2
    28     1    21 ar
    29    12    11 1
    30    21    24 2
    31    11    23 1
    32    24    23 1
    33     1    29 1
    34     4    30 1
    35     6    31 1
    36     7    32 1
    37     8    33 1
    38     9    34 1
    39    10    35 1
    40    12    36 1
    41    12    37 1
    42    13    38 1
    43    14    39 1
    44    15    40 1
    45    17    41 1
    46    20    42 1
    47    23    43 1
    48    26    44 1
    49    27    45 1
    50    28    46 1
@<TRIPOS>SUBSTRUCTURE
     1 C3Z         1 TEMP              0 ****  ****    0 ROOT
