@<TRIPOS>MOLECULE
C40
   77    77     1     0     0
SMALL
bcc


@<TRIPOS>ATOM
      1 C1           0.0000     0.0000     0.0000 c3         1 C40       0.255700
      2 O2           1.4300     0.0000     0.0000 os         1 C40      -0.415600
      3 C3           2.0100     0.0000     1.3060 c3         1 C40       0.217400
      4 C4           3.5360     0.0010     1.1840 c3         1 C40      -0.040400
      5 C5           4.1580    -0.0010     2.5830 c3         1 C40       0.196400
      6 O6           5.5830     0.0010     2.4700 os         1 C40      -0.260900
      7 C7           6.2920    -0.0000     3.6250 ca         1 C40       0.229100
      8 C8           5.6340    -0.0020     4.8470 ca         1 C40      -0.223000
      9 C9           6.3570    -0.0030     6.0230 ca         1 C40      -0.013000
     10 C10          7.7420    -0.0020     5.9940 ca         1 C40      -0.154000
     11 C11          8.4120    -0.0000     4.7890 ca         1 C40      -0.047000
     12 C12          7.6940    -0.0050     3.5920 ca         1 C40      -0.220600
     13 C13          8.4040    -0.0090     2.2980 c          1 C40       0.613700
     14 O14          7.7750    -0.0080     1.2590 o          1 C40      -0.617100
     15 C16         10.4580    -0.0180     0.9880 c3         1 C40       0.052000
     16 N15          9.7510    -0.0140     2.2710 ns         1 C40      -0.239900
     17 C18         12.3760     1.2830     1.9180 c3         1 C40      -0.017100
     18 C17         11.9670    -0.0230     1.2360 c3         1 C40      -0.087700
     19 C19         12.7040    -0.1540    -0.0990 c3         1 C40      -0.036400
     20 N21         12.9230    -2.5830     0.1140 nz         1 C40       0.048400
     21 C20         12.3800    -1.5100    -0.7290 c3         1 C40      -0.119500
     22 C22         13.0090    -1.5880    -2.1220 c3         1 C40       0.060100
     23 O23         14.4260    -1.4390    -2.0140 oh         1 C40      -0.566800
     24 C24         12.6850    -2.9440    -2.7530 c3         1 C40      -0.058400
     25 C25         13.2090    -2.9760    -4.1900 c3         1 C40      -0.128700
     26 C26         13.0240    -4.3800    -4.7690 c3         1 C40      -0.030100
     27 C27         12.4420    -1.9830    -5.0260 c          1 C40       0.562100
     28 O28         11.5650    -1.3160    -4.5210 o          1 C40      -0.678100
     29 N29         12.7330    -1.8370    -6.3330 ns         1 C40      -0.156900
     30 C31         12.5110    -0.9040    -8.5830 c3         1 C40      -0.043400
     31 C32         11.7330     0.1040    -9.4320 c3         1 C40      -0.019400
     32 C33         12.2560     0.0720   -10.8680 c3         1 C40       0.006900
     33 H1C1        -0.3610    -0.8860     0.5070 h1         1 C40      -0.010633
     34 H1C2        -0.3610     0.0040    -1.0210 h1         1 C40      -0.010633
     35 H1C3        -0.3610     0.8830     0.5140 h1         1 C40      -0.010633
     36 H3C1         1.6910    -0.8850     1.8430 h1         1 C40      -0.010300
     37 H3C2         1.6900     0.8840     1.8430 h1         1 C40      -0.010300
     38 H4C1         3.8550     0.8860     0.6480 hc         1 C40       0.035700
     39 H4C2         3.8560    -0.8830     0.6450 hc         1 C40       0.035700
     40 H5C1         3.8380     0.8830     3.1220 h1         1 C40       0.002700
     41 H5C2         3.8400    -0.8860     3.1190 h1         1 C40       0.002700
     42 H8           4.5510    -0.0020     4.8780 ha         1 C40       0.131000
     43 H9           5.8390    -0.0040     6.9740 ha         1 C40       0.108000
     44 H10          8.3010    -0.0010     6.9220 ha         1 C40       0.112000
     45 H11          9.4950    -0.0020     4.7710 ha         1 C40       0.091000
     46 H15         10.2690    -0.0540     3.1270 hn         1 C40       0.186500
     47 H161        10.1810    -0.9020     0.4260 h1         1 C40       0.026700
     48 H162        10.1870     0.8670     0.4240 h1         1 C40       0.026700
     49 H17         12.2250    -0.8600     1.8740 hc         1 C40      -0.003300
     50 H181        12.6550     0.4830     2.5930 hc         1 C40       0.035367
     51 H182        13.2120     1.7930     1.4530 hc         1 C40       0.035367
     52 H183        11.5490     1.8940     2.2580 hc         1 C40       0.035367
     53 H191        12.3870     0.6390    -0.7660 hc         1 C40       0.060200
     54 H192        13.7710    -0.0790     0.0690 hc         1 C40       0.060200
     55 H20         11.3060    -1.6230    -0.8110 hx         1 C40       0.113700
     56 H22         12.1850    -1.1040    -2.6320 h1         1 C40       0.150700
     57 H23         14.0960    -0.7420    -2.5570 ho         1 C40       0.454000
     58 H241        11.6130    -3.0940    -2.7560 hc         1 C40       0.026200
     59 H242        13.1580    -3.7310    -2.1780 hc         1 C40       0.026200
     60 H25         14.2610    -2.7180    -4.1970 hc         1 C40       0.050700
     61 H261        14.0870    -4.1730    -4.7990 hc         1 C40       0.036033
     62 H262        12.7310    -5.1320    -4.0470 hc         1 C40       0.036033
     63 H263        12.5420    -4.4090    -5.7390 hc         1 C40       0.036033
     64 H29         13.4710    -2.3730    -6.7450 hn         1 C40       0.181500
     65 H301        10.9360    -1.1300    -7.1390 h1         1 C40       0.033700
     66 H302        12.1180     0.1230    -6.7370 h1         1 C40       0.033700
     67 H311        13.5630    -0.6460    -8.5900 hc         1 C40       0.019200
     68 H312        12.3800    -1.8980    -8.9920 hc         1 C40       0.019200
     69 H321        11.8630     1.0980    -9.0220 hc         1 C40       0.017700
     70 H322        10.6810    -0.1550    -9.4250 hc         1 C40       0.017700
     71 H331        12.1250    -0.9220   -11.2790 hc         1 C40       0.005700
     72 H332        13.3080     0.3300   -10.8750 hc         1 C40       0.005700
     73 H333        11.7060     0.7860   -11.4690 hc         1 C40       0.005700
     74 H211        13.6400    -3.0700    -0.3860 hn         1 C40       0.230800
     75 C30         11.9880    -0.8720    -7.1460 c3         1 C40       0.039000
     76 H212        12.1900    -3.2220     0.3530 hn         1 C40       0.230800
     77 H213        13.3070    -2.1880     0.9490 hn         1 C40       0.230800
@<TRIPOS>BOND
     1     1     2 1   
     2     1    33 1   
     3     1    34 1   
     4     1    35 1   
     5     2     3 1   
     6     3     4 1   
     7     3    36 1   
     8     3    37 1   
     9     4     5 1   
    10     4    38 1   
    11     4    39 1   
    12     5     6 1   
    13     5    40 1   
    14     5    41 1   
    15     6     7 1   
    16     7     8 ar  
    17     7    12 ar  
    18     8     9 ar  
    19     8    42 1   
    20     9    10 ar  
    21     9    43 1   
    22    10    11 ar  
    23    10    44 1   
    24    11    12 ar  
    25    11    45 1   
    26    12    13 1   
    27    13    14 2   
    28    13    16 1   
    29    15    16 1   
    30    15    18 1   
    31    15    47 1   
    32    15    48 1   
    33    16    46 1   
    34    17    18 1   
    35    17    50 1   
    36    17    51 1   
    37    17    52 1   
    38    18    19 1   
    39    18    49 1   
    40    19    21 1   
    41    19    53 1   
    42    19    54 1   
    43    20    21 1   
    44    20    74 1   
    45    20    76 1   
    46    20    77 1   
    47    21    22 1   
    48    21    55 1   
    49    22    23 1   
    50    22    24 1   
    51    22    56 1   
    52    23    57 1   
    53    24    25 1   
    54    24    58 1   
    55    24    59 1   
    56    25    26 1   
    57    25    27 1   
    58    25    60 1   
    59    26    61 1   
    60    26    62 1   
    61    26    63 1   
    62    27    28 2   
    63    27    29 1   
    64    29    64 1   
    65    29    75 1   
    66    30    31 1   
    67    30    67 1   
    68    30    68 1   
    69    30    75 1   
    70    31    32 1   
    71    31    69 1   
    72    31    70 1   
    73    32    71 1   
    74    32    72 1   
    75    32    73 1   
    76    65    75 1   
    77    66    75 1   
@<TRIPOS>SUBSTRUCTURE
     1 C40         1 TEMP              0 ****  ****    0 ROOT
