@<TRIPOS>MOLECULE
C41
   95    95     1     0     0
SMALL
bcc


@<TRIPOS>ATOM
      1 C1          1.4720    3.0020   -0.4070 c3        1 C41      0.113700
      2 O2          2.6880    2.3110   -0.1670 os        1 C41     -0.412600
      3 C3          2.8540    1.9500    1.2000 c3        1 C41      0.132400
      4 C4          4.2100    1.2740    1.2940 c3        1 C41     -0.092400
      5 C5          4.4360    0.7720    2.7080 c3        1 C41      0.128400
      6 O6          5.7510    0.1910    2.6950 os        1 C41     -0.290900
      7 C7          6.2390   -0.2360    3.9030 ca        1 C41      0.129100
      8 C8          5.4980   -0.3570    5.0760 ca        1 C41     -0.182000
      9 C9          6.1060   -0.8390    6.2480 ca        1 C41     -0.118300
     10 C10         7.4550   -1.1830    6.2350 ca        1 C41     -0.138000
     11 C11         8.2140   -1.0690    5.0670 ca        1 C41     -0.186000
     12 C12         7.6210   -0.6010    3.8960 ca        1 C41      0.133100
     13 O13         8.2550   -0.4530    2.6880 os        1 C41     -0.284900
     14 C14         9.6500   -0.7430    2.6620 c3        1 C41      0.104700
     15 C15         5.3210   -0.9300    7.5090 c3        1 C41     -0.012100
     16 C16         5.1150   -2.3730    7.9800 c3        1 C41     -0.075700
     17 C17         4.0770   -3.1610    7.1680 c3        1 C41     -0.053700
     18 C18         2.8660   -2.3420    6.7740 c3        1 C41     -0.102600
     19 C19         4.7150   -3.7860    5.9440 c3        1 C41     -0.102600
     20 C20         4.7430   -2.3800    9.4630 c3        1 C41     -0.114400
     21 C21         5.5300   -3.4190   10.2770 c3        1 C41      0.089500
     22 N22         5.3540   -4.8000    9.7180 n4        1 C41     -0.836600
     23 C23         5.0900   -3.3430   11.7710 c3        1 C41      0.126100
     24 O24         3.9020   -4.0930   11.9470 oh        1 C41     -0.611800
     25 C25         6.1570   -3.9270   12.7010 c3        1 C41     -0.099400
     26 C26         5.9250   -3.5550   14.1720 c3        1 C41     -0.107700
     27 C27         4.8980   -4.4840   14.8380 c3        1 C41     -0.096700
     28 C28         5.5060   -5.7980   15.2790 c3        1 C41     -0.114600
     29 C29         4.1630   -3.8200   15.9830 c3        1 C41     -0.114600
     30 C30         7.2600   -3.6240   14.8900 c         1 C41      0.558100
     31 O31         8.3070   -4.1150   14.5160 o         1 C41     -0.387100
     32 N32         7.3030   -2.9590   16.2780 n4        1 C41     -0.686800
     33 C33         8.2630   -3.6260   17.1950 c3        1 C41      0.091800
     34 C34         8.4700   -2.9120   18.5580 c3        1 C41     -0.113000
     35 C35         9.2790   -1.6390   18.3740 c3        1 C41     -0.141100
     36 C36         7.1380   -2.6180   19.2330 c3        1 C41     -0.141100
     37 C37         9.2390   -3.9140   19.4220 c         1 C41      0.532100
     38 O38         9.3660   -5.1080   19.2070 o         1 C41     -0.362100
     39 N39         9.8970   -3.4040   20.6730 n4        1 C41     -0.747400
     40 H1C1        1.4890    3.2120   -1.5060 h1        1 C41      0.040033
     41 H1C2        0.5960    2.3600   -0.1430 h1        1 C41      0.040033
     42 H1C3        1.4380    3.9550    0.1750 h1        1 C41      0.040033
     43 H3C1        2.0300    1.2510    1.5080 h1        1 C41      0.023200
     44 H3C2        2.8130    2.8670    1.8450 h1        1 C41      0.023200
     45 H4C1        5.0180    1.9970    1.0090 hc        1 C41      0.082200
     46 H4C2        4.2630    0.4200    0.5700 hc        1 C41      0.082200
     47 H5C1        4.4010    1.6100    3.4520 h1        1 C41      0.035200
     48 H5C2        3.6880   -0.0160    2.9860 h1        1 C41      0.035200
     49 H8          4.4390   -0.0620    5.0920 ha        1 C41      0.142000
     50 H10         7.9450   -1.5340    7.1540 ha        1 C41      0.104000
     51 H151        5.8860   -0.3720    8.3060 hc        1 C41      0.053700
     52 H152        4.3280   -0.4200    7.3950 hc        1 C41      0.053700
     53 H11         9.2800   -1.3400    5.0810 ha        1 C41      0.148000
     54 H141       10.2060   -0.0780    3.3670 h1        1 C41      0.054367
     55 H142        9.9330   -0.5230    1.6000 h1        1 C41      0.054367
     56 H143        9.8320   -1.8180    2.9050 h1        1 C41      0.054367
     57 H16         6.1160   -2.8820    7.8510 hc        1 C41      0.041700
     58 H17         3.6930   -4.0040    7.8190 hc        1 C41     -0.018300
     59 H201        4.9750   -1.3790    9.9200 hc        1 C41      0.083700
     60 H202        3.6410   -2.5510    9.5880 hc        1 C41      0.083700
     61 H181        2.0710   -3.0140    6.3650 hc        1 C41      0.055033
     62 H182        2.4520   -1.7940    7.6540 hc        1 C41      0.055033
     63 H183        3.1320   -1.6030    5.9780 hc        1 C41      0.055033
     64 H191        5.5130   -4.5090    6.2390 hc        1 C41      0.055033
     65 H192        3.9450   -4.3290    5.3420 hc        1 C41      0.055033
     66 H193        5.1730   -2.9950    5.2980 hc        1 C41      0.055033
     67 H21         6.6330   -3.1760   10.2010 hx        1 C41      0.115700
     68 H221        6.0270   -5.4450   10.1340 hn        1 C41      0.472133
     69 H222        4.4010   -5.1300    9.9250 hn        1 C41      0.472133
     70 H23         4.9260   -2.2540   12.0110 h1        1 C41      0.088700
     71 H24         3.1450   -3.5120   11.7740 ho        1 C41      0.453000
     72 H251        7.1590   -3.5410   12.3700 hc        1 C41      0.084200
     73 H252        6.1650   -5.0460   12.6090 hc        1 C41      0.084200
     74 H26         5.5480   -2.4920   14.2210 hc        1 C41      0.099700
     75 H27         4.1280   -4.7130   14.0350 hc        1 C41      0.128700
     76 H281        6.2600   -5.6420   16.0900 hc        1 C41      0.056367
     77 H282        4.7040   -6.4710   15.6750 hc        1 C41      0.056367
     78 H283        6.0050   -6.3200   14.4270 hc        1 C41      0.056367
     79 H291        3.9830   -2.7350   15.7900 hc        1 C41      0.056367
     80 H292        4.6990   -3.9430   16.9560 hc        1 C41      0.056367
     81 H293        3.1620   -4.3100   16.1100 hc        1 C41      0.056367
     82 H32         6.3560   -2.9840   16.6850 hn        1 C41      0.466800
     83 H331        9.2620   -3.6990   16.6650 hx        1 C41      0.140200
     84 H332        7.8830   -4.6780   17.3730 hx        1 C41      0.140200
     85 H351       10.3150   -1.8610   18.0140 hc        1 C41      0.084700
     86 H352        8.7910   -0.9670   17.6240 hc        1 C41      0.084700
     87 H353        9.3360   -1.0530   19.3260 hc        1 C41      0.084700
     88 H361        6.4790   -3.5210   19.2370 hc        1 C41      0.084700
     89 H362        7.2830   -2.2830   20.2910 hc        1 C41      0.084700
     90 H363        6.6140   -1.7800   18.7070 hc        1 C41      0.084700
     91 H391        9.2000   -2.9820   21.3010 hn        1 C41      0.491467
     92 H392       10.3600   -4.1860   21.1690 hn        1 C41      0.491467
     93 H223        5.4810   -4.7730    8.6930 hn        1 C41      0.472133
     94 H322        7.5730   -1.9760   16.1500 hn        1 C41      0.466800
     95 H393       10.6060   -2.6960   20.4400 hn        1 C41      0.491467
@<TRIPOS>BOND
     1    1    2 1   
     2    1   40 1   
     3    1   41 1   
     4    1   42 1   
     5    2    3 1   
     6    3    4 1   
     7    3   43 1   
     8    3   44 1   
     9    4    5 1   
    10    4   45 1   
    11    4   46 1   
    12    5    6 1   
    13    5   47 1   
    14    5   48 1   
    15    6    7 1   
    16    7    8 ar  
    17    7   12 ar  
    18    8    9 ar  
    19    8   49 1   
    20    9   10 ar  
    21    9   15 1   
    22   10   11 ar  
    23   10   50 1   
    24   11   12 ar  
    25   11   53 1   
    26   12   13 1   
    27   13   14 1   
    28   14   54 1   
    29   14   55 1   
    30   14   56 1   
    31   15   16 1   
    32   15   51 1   
    33   15   52 1   
    34   16   17 1   
    35   16   20 1   
    36   16   57 1   
    37   17   18 1   
    38   17   19 1   
    39   17   58 1   
    40   18   61 1   
    41   18   62 1   
    42   18   63 1   
    43   19   64 1   
    44   19   65 1   
    45   19   66 1   
    46   20   21 1   
    47   20   59 1   
    48   20   60 1   
    49   21   22 1   
    50   21   23 1   
    51   21   67 1   
    52   22   68 1   
    53   22   69 1   
    54   22   93 1   
    55   23   24 1   
    56   23   25 1   
    57   23   70 1   
    58   24   71 1   
    59   25   26 1   
    60   25   72 1   
    61   25   73 1   
    62   26   27 1   
    63   26   30 1   
    64   26   74 1   
    65   27   28 1   
    66   27   29 1   
    67   27   75 1   
    68   28   76 1   
    69   28   77 1   
    70   28   78 1   
    71   29   79 1   
    72   29   80 1   
    73   29   81 1   
    74   30   31 2   
    75   30   32 1   
    76   32   33 1   
    77   32   82 1   
    78   32   94 1   
    79   33   34 1   
    80   33   83 1   
    81   33   84 1   
    82   34   35 1   
    83   34   36 1   
    84   34   37 1   
    85   35   85 1   
    86   35   86 1   
    87   35   87 1   
    88   36   88 1   
    89   36   89 1   
    90   36   90 1   
    91   37   38 2   
    92   37   39 1   
    93   39   91 1   
    94   39   92 1   
    95   39   95 1   
@<TRIPOS>SUBSTRUCTURE
     1 C41         1 TEMP              0 ****  ****    0 ROOT
