@<TRIPOS>MOLECULE
molecule
   84    88     1     0     0
SMALL
bcc


@<TRIPOS>ATOM
      1 C1           0.0000     0.0000     0.0000 c          1 C44       0.683700
      2 N2           1.3580     0.0000     0.0000 ns         1 C44      -0.586900
      3 C3           2.1460     0.0000     1.2270 c3         1 C44       0.101700
      4 C4           2.8120     1.3850     1.3460 c3         1 C44       0.147100
      5 C5           3.1380    -1.1970     1.1780 c3         1 C44      -0.039100
      6 C6           1.8600     2.5750     1.3880 c3         1 C44       0.172800
      7 O7          -0.6470     0.3380     0.9940 o          1 C44      -0.595100
      8 C8          -0.6330    -0.4250    -1.2470 ca         1 C44      -0.100600
      9 C9          -0.2510    -1.6150    -1.9150 ca         1 C44      -0.176000
     10 C10         -0.8970    -2.0010    -3.1230 ca         1 C44       0.221600
     11 C11         -1.9340    -1.1760    -3.6500 ca         1 C44      -0.224000
     12 C12         -2.3230     0.0310    -2.9780 ca         1 C44       0.139600
     13 C13         -1.6590     0.3850    -1.7810 ca         1 C44      -0.123000
     14 C14          2.4600    -2.5390     0.9980 ca         1 C44      -0.080300
     15 C15          1.2780    -2.9110     1.6990 ca         1 C44      -0.126500
     16 C16          0.6840    -4.1790     1.4750 ca         1 C44      -0.130000
     17 C17          1.2680    -5.0790     0.5500 ca         1 C44      -0.139000
     18 C18          2.4420    -4.7150    -0.1480 ca         1 C44      -0.130000
     19 C19          3.0310    -3.4510     0.0770 ca         1 C44      -0.126500
     20 N20          2.6400     3.8140     1.5370 n7         1 C44      -0.851200
     21 N32         -0.5500    -3.1560    -3.8050 nu         1 C44      -0.813600
     22 C33          0.4190    -4.1520    -3.3240 c3         1 C44       0.231800
     23 C34          1.8080    -3.8820    -3.9120 c3         1 C44      -0.118100
     24 S41         -3.5700     1.1090    -5.0590 s6         1 C44       1.282900
     25 C42         -4.6800    -0.1420    -5.6800 c3         1 C44      -0.253600
     26 C43         -5.9120    -0.1960    -4.7690 c3         1 C44      -0.068400
     27 C44         -5.5190    -0.4540    -3.3040 c3         1 C44      -0.130400
     28 C45         -4.6330     0.6690    -2.7160 c3         1 C44       0.169800
     29 O52         -4.1980     2.3850    -5.1930 o          1 C44      -0.611300
     30 O53         -2.3220     0.9490    -5.7560 o          1 C44      -0.611300
     31 C54          1.9760     5.0230     2.0970 c3         1 C44       0.249800
     32 C56          0.9740     5.6100     1.0700 c3         1 C44      -0.117400
     33 C57          0.1480     6.7550     1.6870 c3         1 C44      -0.073400
     34 C58         -0.7260     6.2310     2.8520 c3         1 C44      -0.032100
     35 C59          0.0140     5.2930     3.8030 ca         1 C44      -0.073300
     36 C60          1.2890     4.7160     3.4630 ca         1 C44      -0.087300
     37 C67         -0.5750     4.9820     5.0570 ca         1 C44      -0.139000
     38 C68          0.0680     4.1170     5.9740 ca         1 C44      -0.127000
     39 C69          1.3160     3.5480     5.6560 ca         1 C44      -0.141000
     40 C70          1.9210     3.8480     4.4080 ca         1 C44      -0.100000
     41 N75         -3.3300     0.8730    -3.4410 nh         1 C44      -0.579900
     42 O82          3.6130     1.4170     2.5080 oh         1 C44      -0.590800
     43 H2           1.8370     0.0020    -0.8780 hn         1 C44       0.317500
     44 H3           1.4790    -0.1370     2.0700 h1         1 C44       0.096700
     45 H4           3.4630     1.5120     0.4900 h1         1 C44       0.012700
     46 H5C1         3.7030    -1.2160     2.1030 hc         1 C44       0.056700
     47 H5C2         3.8260    -1.0430     0.3550 hc         1 C44       0.056700
     48 H6C1         1.2900     2.6150     0.4670 h1         1 C44       0.054200
     49 H6C2         1.1840     2.4700     2.2280 h1         1 C44       0.054200
     50 H82          4.5200     1.4980     2.2630 ho         1 C44       0.403000
     51 H20          3.0710     4.0450     0.6630 hn         1 C44       0.352800
     52 H9           0.5380    -2.2340    -1.5050 ha         1 C44       0.148000
     53 H13         -1.9430     1.2940    -1.2640 ha         1 C44       0.157000
     54 H11         -2.4320    -1.4620    -4.5690 ha         1 C44       0.127000
     55 H32         -0.9900    -3.3250    -4.6880 hn         1 C44       0.433800
     56 H15          0.8310    -2.2230     2.4070 ha         1 C44       0.136500
     57 H19          3.9310    -3.1770    -0.4600 ha         1 C44       0.136500
     58 H16         -0.2150    -4.4580     2.0090 ha         1 C44       0.133500
     59 H17          0.8150    -6.0480     0.3780 ha         1 C44       0.130000
     60 H18          2.8880    -5.4040    -0.8550 ha         1 C44       0.133500
     61 H54          2.7380     5.7710     2.2750 h1         1 C44       0.066700
     62 H331         0.4730    -4.1040    -2.2430 h1         1 C44       0.052700
     63 H332         0.0910    -5.1410    -3.6210 h1         1 C44       0.052700
     64 H341         1.7320    -3.7850    -4.9890 hc         1 C44       0.042033
     65 H342         2.4690    -4.7060    -3.6700 hc         1 C44       0.042033
     66 H343         2.2050    -2.9650    -3.4940 hc         1 C44       0.042033
     67 H422        -4.1820    -1.1040    -5.6750 h1         1 C44       0.106200
     68 H431        -6.4390     0.7480    -4.8320 hc         1 C44       0.063200
     69 H432        -6.5640    -0.9940    -5.1050 hc         1 C44       0.063200
     70 H441        -6.4220    -0.5310    -2.7100 hc         1 C44       0.064200
     71 H442        -4.9770    -1.3900    -3.2480 hc         1 C44       0.064200
     72 H451        -4.4150     0.4270    -1.6830 h1         1 C44       0.082700
     73 H452        -5.1910     1.5970    -2.7470 h1         1 C44       0.082700
     74 H561         1.5240     5.9900     0.2170 hc         1 C44       0.044700
     75 H562         0.3020     4.8250     0.7430 hc         1 C44       0.044700
     76 H571        -0.5030     7.1620     0.9230 hc         1 C44       0.045200
     77 H572         0.8300     7.5010     2.0770 hc         1 C44       0.045200
     78 H581        -1.0670     7.0850     3.4240 hc         1 C44       0.050700
     79 H582        -1.5580     5.6840     2.4250 hc         1 C44       0.050700
     80 H67         -1.5350     5.4130     5.3150 ha         1 C44       0.127000
     81 H70          2.8810     3.4090     4.1650 ha         1 C44       0.155000
     82 H68         -0.4010     3.8940     6.9250 ha         1 C44       0.127000
     83 H69          1.8090     2.8860     6.3580 ha         1 C44       0.132000
     84 H421        -4.9850     0.1110    -6.6880 h1         1 C44       0.106200
@<TRIPOS>BOND
     1     1     2 1
     2     1     7 2
     3     1     8 1
     4     2     3 1
     5     3     4 1
     6     3     5 1
     7     4     6 1
     8     4    42 1
     9     5    14 1
    10     6    20 1
    11     8     9 ar
    12     8    13 ar
    13     9    10 ar
    14    10    11 ar
    15    10    21 1
    16    11    12 ar
    17    12    13 ar
    18    12    41 1
    19    14    15 ar
    20    14    19 ar
    21    15    16 ar
    22    16    17 ar
    23    17    18 ar
    24    18    19 ar
    25    20    31 1
    26    21    22 1
    27    22    23 1
    28    24    25 1
    29    24    29 2
    30    24    30 2
    31    24    41 1
    32    25    26 1
    33    26    27 1
    34    27    28 1
    35    28    41 1
    36    31    32 1
    37    31    36 1
    38    32    33 1
    39    33    34 1
    40    34    35 1
    41    35    36 ar
    42    35    37 ar
    43    36    40 ar
    44    37    38 ar
    45    38    39 ar
    46    39    40 ar
    47     2    43 1
    48     3    44 1
    49     4    45 1
    50     5    46 1
    51     5    47 1
    52     6    48 1
    53     6    49 1
    54    42    50 1
    55    20    51 1
    56     9    52 1
    57    13    53 1
    58    11    54 1
    59    21    55 1
    60    15    56 1
    61    19    57 1
    62    16    58 1
    63    17    59 1
    64    18    60 1
    65    31    61 1
    66    22    62 1
    67    22    63 1
    68    23    64 1
    69    23    65 1
    70    23    66 1
    71    25    84 1
    72    25    67 1
    73    26    68 1
    74    26    69 1
    75    27    70 1
    76    27    71 1
    77    28    72 1
    78    28    73 1
    79    32    74 1
    80    32    75 1
    81    33    76 1
    82    33    77 1
    83    34    78 1
    84    34    79 1
    85    37    80 1
    86    40    81 1
    87    38    82 1
    88    39    83 1
@<TRIPOS>SUBSTRUCTURE
     1 C44         1 TEMP              0 ****  ****    0 ROOT
