@<TRIPOS>MOLECULE
C44
   84    88     1     0     0
SMALL
bcc


@<TRIPOS>ATOM
      1 C1           0.0000     0.0000     0.0000 c          1 C44       0.608700
      2 N2           1.3580     0.0000     0.0000 ns         1 C44      -0.202900
      3 C3           2.1460     0.0000     1.2270 c3         1 C44      -0.003300
      4 C4           2.8120     1.3850     1.3460 c3         1 C44       0.192100
      5 C5           3.1380    -1.1970     1.1780 c3         1 C44       0.030900
      6 C6           1.8600     2.5750     1.3880 c3         1 C44       0.127800
      7 O7          -0.6470     0.3380     0.9940 o          1 C44      -0.637100
      8 C8          -0.6330    -0.4250    -1.2470 ca         1 C44      -0.104600
      9 C9          -0.2510    -1.6150    -1.9150 ca         1 C44      -0.164000
     10 C10         -0.8970    -2.0010    -3.1230 ca         1 C44       0.083600
     11 C11         -1.9340    -1.1760    -3.6500 ca         1 C44      -0.204000
     12 C12         -2.3230     0.0310    -2.9780 ca         1 C44       0.085600
     13 C13         -1.6590     0.3850    -1.7810 ca         1 C44      -0.102000
     14 C14          2.4600    -2.5390     0.9980 ca         1 C44      -0.090300
     15 C15          1.2780    -2.9110     1.6990 ca         1 C44      -0.101000
     16 C16          0.6840    -4.1790     1.4750 ca         1 C44      -0.099500
     17 C17          1.2680    -5.0790     0.5500 ca         1 C44      -0.111000
     18 C18          2.4420    -4.7150    -0.1480 ca         1 C44      -0.099500
     19 C19          3.0310    -3.4510     0.0770 ca         1 C44      -0.101000
     20 N20          2.6400     3.8140     1.5370 n7         1 C44      -0.589200
     21 N32         -0.5500    -3.1560    -3.8050 nu         1 C44      -0.403600
     22 C33          0.4190    -4.1520    -3.3240 c3         1 C44       0.156800
     23 C34          1.8080    -3.8820    -3.9120 c3         1 C44      -0.019100
     24 S41         -3.5700     1.1090    -5.0590 s6         1 C44       0.918900
     25 C42         -4.6800    -0.1420    -5.6800 c3         1 C44      -0.042600
     26 C43         -5.9120    -0.1960    -4.7690 c3         1 C44      -0.000400
     27 C44         -5.5190    -0.4540    -3.3040 c3         1 C44      -0.069400
     28 C45         -4.6330     0.6690    -2.7160 c3         1 C44       0.175800
     29 O52         -4.1980     2.3850    -5.1930 o          1 C44      -0.577300
     30 O53         -2.3220     0.9490    -5.7560 o          1 C44      -0.577300
     31 C54          1.9760     5.0230     2.0970 c3         1 C44       0.210800
     32 C56          0.9740     5.6100     1.0700 c3         1 C44      -0.062400
     33 C57          0.1480     6.7550     1.6870 c3         1 C44      -0.013400
     34 C58         -0.7260     6.2310     2.8520 c3         1 C44       0.037900
     35 C59          0.0140     5.2930     3.8030 ca         1 C44      -0.074300
     36 C60          1.2890     4.7160     3.4630 ca         1 C44      -0.088300
     37 C67         -0.5750     4.9820     5.0570 ca         1 C44      -0.111000
     38 C68          0.0680     4.1170     5.9740 ca         1 C44      -0.099000
     39 C69          1.3160     3.5480     5.6560 ca         1 C44      -0.111000
     40 C70          1.9210     3.8480     4.4080 ca         1 C44      -0.079000
     41 N75         -3.3300     0.8730    -3.4410 nh         1 C44      -0.283900
     42 O82          3.6130     1.4170     2.5080 oh         1 C44      -0.570800
     43 H2           1.8370     0.0020    -0.8780 hn         1 C44       0.178500
     44 H3           1.4790    -0.1370     2.0700 h1         1 C44       0.072700
     45 H4           3.4630     1.5120     0.4900 h1         1 C44      -0.017300
     46 H5C1         3.7030    -1.2160     2.1030 hc         1 C44       0.025200
     47 H5C2         3.8260    -1.0430     0.3550 hc         1 C44       0.025200
     48 H6C1         1.2900     2.6150     0.4670 h1         1 C44       0.030200
     49 H6C2         1.1840     2.4700     2.2280 h1         1 C44       0.030200
     50 H82          4.5200     1.4980     2.2630 ho         1 C44       0.388000
     51 H20          3.0710     4.0450     0.6630 hn         1 C44       0.246800
     52 H9           0.5380    -2.2340    -1.5050 ha         1 C44       0.124000
     53 H13         -1.9430     1.2940    -1.2640 ha         1 C44       0.128000
     54 H11         -2.4320    -1.4620    -4.5690 ha         1 C44       0.111000
     55 H32         -0.9900    -3.3250    -4.6880 hn         1 C44       0.283800
     56 H15          0.8310    -2.2230     2.4070 ha         1 C44       0.112000
     57 H19          3.9310    -3.1770    -0.4600 ha         1 C44       0.112000
     58 H16         -0.2150    -4.4580     2.0090 ha         1 C44       0.105000
     59 H17          0.8150    -6.0480     0.3780 ha         1 C44       0.103000
     60 H18          2.8880    -5.4040    -0.8550 ha         1 C44       0.105000
     61 H54          2.7380     5.7710     2.2750 h1         1 C44       0.031700
     62 H331         0.4730    -4.1040    -2.2430 h1         1 C44       0.024700
     63 H332         0.0910    -5.1410    -3.6210 h1         1 C44       0.024700
     64 H341         1.7320    -3.7850    -4.9890 hc         1 C44       0.009033
     65 H342         2.4690    -4.7060    -3.6700 hc         1 C44       0.009033
     66 H343         2.2050    -2.9650    -3.4940 hc         1 C44       0.009033
     67 H422        -4.1820    -1.1040    -5.6750 h1         1 C44       0.077200
     68 H431        -6.4390     0.7480    -4.8320 hc         1 C44       0.029200
     69 H432        -6.5640    -0.9940    -5.1050 hc         1 C44       0.029200
     70 H441        -6.4220    -0.5310    -2.7100 hc         1 C44       0.029200
     71 H442        -4.9770    -1.3900    -3.2480 hc         1 C44       0.029200
     72 H451        -4.4150     0.4270    -1.6830 h1         1 C44       0.042700
     73 H452        -5.1910     1.5970    -2.7470 h1         1 C44       0.042700
     74 H561         1.5240     5.9900     0.2170 hc         1 C44       0.018200
     75 H562         0.3020     4.8250     0.7430 hc         1 C44       0.018200
     76 H571        -0.5030     7.1620     0.9230 hc         1 C44       0.015700
     77 H572         0.8300     7.5010     2.0770 hc         1 C44       0.015700
     78 H581        -1.0670     7.0850     3.4240 hc         1 C44       0.019200
     79 H582        -1.5580     5.6840     2.4250 hc         1 C44       0.019200
     80 H67         -1.5350     5.4130     5.3150 ha         1 C44       0.101000
     81 H70          2.8810     3.4090     4.1650 ha         1 C44       0.124000
     82 H68         -0.4010     3.8940     6.9250 ha         1 C44       0.099000
     83 H69          1.8090     2.8860     6.3580 ha         1 C44       0.104000
     84 H421        -4.9850     0.1110    -6.6880 h1         1 C44       0.077200
@<TRIPOS>BOND
     1     1     2 1   
     2     1     7 2   
     3     1     8 1   
     4     2     3 1   
     5     2    43 1   
     6     3     4 1   
     7     3     5 1   
     8     3    44 1   
     9     4     6 1   
    10     4    42 1   
    11     4    45 1   
    12     5    14 1   
    13     5    46 1   
    14     5    47 1   
    15     6    20 1   
    16     6    48 1   
    17     6    49 1   
    18     8     9 ar  
    19     8    13 ar  
    20     9    10 ar  
    21     9    52 1   
    22    10    11 ar  
    23    10    21 1   
    24    11    12 ar  
    25    11    54 1   
    26    12    13 ar  
    27    12    41 1   
    28    13    53 1   
    29    14    15 ar  
    30    14    19 ar  
    31    15    16 ar  
    32    15    56 1   
    33    16    17 ar  
    34    16    58 1   
    35    17    18 ar  
    36    17    59 1   
    37    18    19 ar  
    38    18    60 1   
    39    19    57 1   
    40    20    31 1   
    41    20    51 1   
    42    21    22 1   
    43    21    55 1   
    44    22    23 1   
    45    22    62 1   
    46    22    63 1   
    47    23    64 1   
    48    23    65 1   
    49    23    66 1   
    50    24    25 1   
    51    24    29 2   
    52    24    30 2   
    53    24    41 1   
    54    25    26 1   
    55    25    67 1   
    56    25    84 1   
    57    26    27 1   
    58    26    68 1   
    59    26    69 1   
    60    27    28 1   
    61    27    70 1   
    62    27    71 1   
    63    28    41 1   
    64    28    72 1   
    65    28    73 1   
    66    31    32 1   
    67    31    36 1   
    68    31    61 1   
    69    32    33 1   
    70    32    74 1   
    71    32    75 1   
    72    33    34 1   
    73    33    76 1   
    74    33    77 1   
    75    34    35 1   
    76    34    78 1   
    77    34    79 1   
    78    35    36 ar  
    79    35    37 ar  
    80    36    40 ar  
    81    37    38 ar  
    82    37    80 1   
    83    38    39 ar  
    84    38    82 1   
    85    39    40 ar  
    86    39    83 1   
    87    40    81 1   
    88    42    50 1   
@<TRIPOS>SUBSTRUCTURE
     1 C44         1 TEMP              0 ****  ****    0 ROOT
