@<TRIPOS>MOLECULE
molecule
   79    80     1     0     0
SMALL
bcc


@<TRIPOS>ATOM
      1 C1           0.0000     0.0000     0.0000 c3         1 C47       0.134700
      2 O2           1.5220     0.0000     0.0000 os         1 C47      -0.423900
      3 C3           2.0210     0.0000     1.3450 c          1 C47       0.610100
      4 O4           1.1840    -0.2040     2.2580 o          1 C47      -0.563000
      5 C5           3.4230     0.2720     1.7370 c3         1 C47      -0.105700
      6 C6           3.6770    -1.0620     2.4040 c3         1 C47      -0.043100
      7 C7           4.9820    -1.0560     3.0940 ca         1 C47      -0.114300
      8 C8           5.9050    -2.1610     3.0280 ca         1 C47      -0.101000
      9 C9           7.2360    -2.0010     3.7410 ca         1 C47      -0.130000
     10 C10          7.6340    -0.8260     4.3810 ca         1 C47      -0.114000
     11 C11          6.7720     0.2860     4.3630 ca         1 C47      -0.105000
     12 C12          5.4280     0.1890     3.6690 ca         1 C47       0.042600
     13 N13          4.3980     1.2980     3.6260 n          1 C47      -0.394000
     14 C14          3.2280     1.1990     2.8410 c3         1 C47       0.099000
     15 C15          4.5550     2.4500     4.4220 c          1 C47       0.658100
     16 O16          5.5250     2.5460     5.1940 o          1 C47      -0.579100
     17 C17          3.5910     3.6320     4.2710 c3         1 C47      -0.150400
     18 C18          4.4350     4.7820     4.0080 c3         1 C47      -0.085000
     19 C19          5.3750     4.5760     2.8880 c3         1 C47      -0.088100
     20 C20          5.3120     5.2190     5.2030 c3         1 C47      -0.088100
     21 C21          3.5670     5.8750     3.6420 c3         1 C47      -0.098400
     22 C22          2.6010     6.0970     4.7960 c3         1 C47       0.140500
     23 N23          1.2600     5.4510     4.2720 nz         1 C47      -0.843600
     24 C24          2.3050     7.5850     5.0420 c3         1 C47       0.124100
     25 O25          1.3410     7.7460     3.9230 oh         1 C47      -0.674800
     26 C26          1.5910     7.5700     6.4810 c3         1 C47      -0.077400
     27 C27          1.1420     9.0050     6.7350 c3         1 C47      -0.164700
     28 C28         -0.0260     8.9760     7.7680 c3         1 C47      -0.073100
     29 C29          2.4330     9.8280     6.9980 c          1 C47       0.668100
     30 O30          3.4650     9.2990     7.1920 o          1 C47      -0.628100
     31 N31          2.4400    11.1000     6.9580 ns         1 C47      -0.552900
     32 C32          3.6100    11.9440     6.9010 c3         1 C47       0.119000
     33 C33          4.3900    11.4380     5.8460 c3         1 C47      -0.108400
     34 C34          5.0580    12.6150     5.2610 c3         1 C47      -0.096400
     35 C35          6.0520    12.9730     6.4570 c3         1 C47      -0.103100
     36 H1C1        -0.3610     0.0690    -1.0190 h1         1 C47       0.055033
     37 H1C2        -0.3610     0.8480     0.5690 h1         1 C47       0.055033
     38 H1C3        -0.3610    -0.9170     0.4500 h1         1 C47       0.055033
     39 H5           4.1060     0.5670     0.9490 hc         1 C47       0.118700
     40 H6C1         2.8990    -1.2350     3.1380 hc         1 C47       0.083200
     41 H6C2         3.6930    -1.8320     1.6420 hc         1 C47       0.083200
     42 H141         2.4130     0.8470     3.4610 h1         1 C47       0.051200
     43 H142         2.9830     2.1770     2.4440 h1         1 C47       0.051200
     44 H8           5.6340    -3.0920     2.5450 ha         1 C47       0.153000
     45 H9           7.9090    -2.8490     3.7620 ha         1 C47       0.139000
     46 H10          8.5970    -0.7680     4.8750 ha         1 C47       0.153000
     47 H11          7.0640     1.2060     4.8540 ha         1 C47       0.170000
     48 H171         3.0300     3.7790     5.1870 hc         1 C47       0.047700
     49 H172         2.9170     3.4630     3.4400 hc         1 C47       0.047700
     50 H191         5.8690     5.5110     2.6530 hc         1 C47       0.055700
     51 H192         4.8310     4.2270     2.0190 hc         1 C47       0.055700
     52 H193         6.1160     3.8370     3.1700 hc         1 C47       0.055700
     53 H201         4.8490     4.8960     6.1280 hc         1 C47       0.055700
     54 H202         6.2930     4.7700     5.1140 hc         1 C47       0.055700
     55 H203         5.4070     6.2990     5.2050 hc         1 C47       0.055700
     56 H211         4.1530     6.7710     3.4760 hc         1 C47       0.073700
     57 H212         3.0160     5.6230     2.7440 hc         1 C47       0.073700
     58 H22          2.9460     5.6070     5.6990 hx         1 C47       0.133700
     59 H231         1.2800     5.4030     3.2730 hn         1 C47       0.451467
     60 H232         1.1650     4.5280     4.6480 hn         1 C47       0.451467
     61 H24          3.1800     8.2200     4.9750 h1         1 C47       0.132700
     62 H25          1.5770     8.5020     3.4110 ho         1 C47       0.443000
     63 H261         0.7340     6.9070     6.4660 hc         1 C47       0.069700
     64 H262         2.2940     7.2570     7.2430 hc         1 C47       0.069700
     65 H27          0.7240     9.3760     5.8070 hc         1 C47       0.055700
     66 H281         0.3150     8.5100     8.6850 hc         1 C47       0.050367
     67 H282        -0.8540     8.4090     7.3610 hc         1 C47       0.050367
     68 H283        -0.3490     9.9890     7.9770 hc         1 C47       0.050367
     69 H31          1.5510    11.5590     6.9660 hn         1 C47       0.299500
     70 H321         3.3230    12.9680     6.6970 h1         1 C47       0.065200
     71 H322         4.1580    11.8860     7.8330 h1         1 C47       0.065200
     72 H331         5.1260    10.7380     6.2240 hc         1 C47       0.051700
     73 H332         3.7590    10.9590     5.1070 hc         1 C47       0.051700
     74 H341         5.6020    12.3530     4.3620 hc         1 C47       0.051700
     75 H342         4.3540    13.4180     5.0810 hc         1 C47       0.051700
     76 H351         5.5280    13.5650     7.1970 hc         1 C47       0.040033
     77 H352         6.4110    12.0590     6.9130 hc         1 C47       0.040033
     78 H353         6.8920    13.5380     6.0710 hc         1 C47       0.040033
     79 H233         0.4840     6.0180     4.5530 hn         1 C47       0.451467
@<TRIPOS>BOND
     1     1     2 1
     2     2     3 1
     3     3     4 2
     4     3     5 1
     5     5     6 1
     6     5    14 1
     7     6     7 1
     8     7     8 ar
     9     7    12 ar
    10     8     9 ar
    11     9    10 ar
    12    10    11 ar
    13    11    12 ar
    14    12    13 1
    15    13    14 1
    16    13    15 1
    17    15    16 2
    18    15    17 1
    19    17    18 1
    20    18    19 1
    21    18    20 1
    22    18    21 1
    23    21    22 1
    24    22    23 1
    25    22    24 1
    26    24    25 1
    27    24    26 1
    28    26    27 1
    29    27    28 1
    30    27    29 1
    31    29    30 2
    32    29    31 1
    33    31    32 1
    34    32    33 1
    35    33    34 1
    36    34    35 1
    37     1    36 1
    38     1    37 1
    39     1    38 1
    40     5    39 1
    41     6    40 1
    42     6    41 1
    43    14    42 1
    44    14    43 1
    45     8    44 1
    46     9    45 1
    47    10    46 1
    48    11    47 1
    49    17    48 1
    50    17    49 1
    51    19    50 1
    52    19    51 1
    53    19    52 1
    54    20    53 1
    55    20    54 1
    56    20    55 1
    57    21    56 1
    58    21    57 1
    59    22    58 1
    60    23    59 1
    61    23    60 1
    62    24    61 1
    63    25    62 1
    64    26    63 1
    65    26    64 1
    66    27    65 1
    67    28    66 1
    68    28    67 1
    69    28    68 1
    70    31    69 1
    71    32    70 1
    72    32    71 1
    73    33    72 1
    74    33    73 1
    75    34    74 1
    76    34    75 1
    77    35    76 1
    78    35    77 1
    79    35    78 1
    80    79    23 1
@<TRIPOS>SUBSTRUCTURE
     1 C47         1 TEMP              0 ****  ****    0 ROOT
