@<TRIPOS>MOLECULE
molecule
   56    57     1     0     0
SMALL
bcc


@<TRIPOS>ATOM
      1 O1           0.0000     0.0000     0.0000 o          1 C48      -0.570100
      2 O2          -0.1980    -0.0000     2.2290 o          1 C48      -0.450100
      3 O3           2.6790    -0.0010     4.0760 o          1 C48      -0.577100
      4 N5           0.6120     0.0000     4.8800 ns         1 C48      -0.566900
      5 N8           0.5730    -0.9950    -5.1840 nb         1 C48      -0.689000
      6 C9           1.2120     0.0000     0.0000 c          1 C48       0.651100
      7 C10          1.9660     0.0000     1.3040 c3         1 C48      -0.244400
      8 C11          0.9880     0.0000     2.4500 c          1 C48       0.497100
      9 C12          1.4860    -0.0000     3.8540 c          1 C48       0.562100
     10 C13          1.1000     0.0000     6.2600 c3         1 C48       0.050700
     11 C14          0.0070     0.5310     7.1890 c3         1 C48      -0.047100
     12 C15         -0.3560     1.9360     6.7850 ca         1 C48      -0.093300
     13 C16         -1.3600     2.1520     5.8590 ca         1 C48      -0.123000
     14 C17         -1.6920     3.4410     5.4880 ca         1 C48      -0.121000
     15 C18         -1.0220     4.5150     6.0440 ca         1 C48      -0.126000
     16 C19         -0.0190     4.3000     6.9700 ca         1 C48      -0.121000
     17 C20          0.3100     3.0100     7.3440 ca         1 C48      -0.123000
     18 C21          1.4630    -1.4050     6.6650 c          1 C48       0.653100
     19 C22         -0.4950    -2.2010     5.4550 c3         1 C48       0.095800
     20 C23          0.9560    -3.7840     6.8060 c3         1 C48       0.095800
     21 C24          1.1520     0.0000    -2.4370 c3         1 C48       0.119000
     22 C25          2.1450    -0.0000    -3.6000 c3         1 C48      -0.142700
     23 C26          1.3910    -0.0000    -4.9050 ca         1 C48       0.426600
     24 C27          1.5700     1.0400    -5.7960 ca         1 C48      -0.246300
     25 C28          0.8710     1.0310    -6.9940 ca         1 C48      -0.089000
     26 C29          0.0160    -0.0300    -7.2500 ca         1 C48      -0.255300
     27 C30         -0.1100    -1.0340    -6.3110 ca         1 C48       0.426200
     28 HN5         -0.3710     0.0480     4.6970 hn         1 C48       0.337500
     29 HN7          2.8860    -0.0010    -1.1680 hn         1 C48       0.310500
     30 H101         2.5890    -0.8850     1.3610 hc         1 C48       0.096200
     31 H102         2.5890     0.8850     1.3610 hc         1 C48       0.096200
     32 H13          1.9750     0.6350     6.3340 h1         1 C48       0.114700
     33 H141        -0.8680    -0.1030     7.1160 hc         1 C48       0.066200
     34 H142         0.3690     0.5310     8.2100 hc         1 C48       0.066200
     35 H16         -1.8850     1.3110     5.4240 ha         1 C48       0.130000
     36 H17         -2.4780     3.6100     4.7620 ha         1 C48       0.133500
     37 H18         -1.2810     5.5260     5.7520 ha         1 C48       0.132000
     38 H19          0.5050     5.1410     7.4070 ha         1 C48       0.133500
     39 H20          1.0960     2.8410     8.0700 ha         1 C48       0.130000
     40 H221        -1.0210    -3.1360     5.2960 h1         1 C48       0.042033
     41 H222        -1.1390    -1.5110     5.9860 h1         1 C48       0.042033
     42 H223        -0.2210    -1.7750     4.4970 h1         1 C48       0.042033
     43 H231         1.0030    -3.7750     7.8880 h1         1 C48       0.042033
     44 H232         1.9040    -4.1230     6.4060 h1         1 C48       0.042033
     45 H233         0.1680    -4.4550     6.4840 h1         1 C48       0.042033
     46 H241         0.5290    -0.8840    -2.4940 h1         1 C48       0.065700
     47 H242         0.5290     0.8850    -2.4940 h1         1 C48       0.065700
     48 H251         2.7680    -0.8850    -3.5430 hc         1 C48       0.057700
     49 H252         2.7680     0.8840    -3.5430 hc         1 C48       0.057700
     50 H27          2.2450     1.8540    -5.5610 ha         1 C48       0.139000
     51 H28          0.9910     1.8330    -7.7120 ha         1 C48       0.139000
     52 H29         -0.5470    -0.0690    -8.1750 ha         1 C48       0.139000
     53 H30         -0.7750    -1.8670    -6.5050 h4         1 C48       0.025100
     54 N6           0.6640    -2.4340     6.3180 n          1 C48      -0.493800
     55 O4           2.4740    -1.6120     7.3020 o          1 C48      -0.588100
     56 N7           1.8850     0.0000    -1.1680 ns         1 C48      -0.592900
@<TRIPOS>BOND
     1     1     6 2
     2     2     8 2
     3     3     9 2
     4    55    18 2
     5     4     9 1
     6     4    10 1
     7     4    28 1
     8    54    18 1
     9    54    19 1
    10    54    20 1
    11    56     6 1
    12    56    21 1
    13    56    29 1
    14     5    23 ar
    15     5    27 ar
    16     6     7 1
    17     7     8 1
    18     7    30 1
    19     7    31 1
    20     8     9 1
    21    10    11 1
    22    10    18 1
    23    10    32 1
    24    11    12 1
    25    11    33 1
    26    11    34 1
    27    12    13 ar
    28    12    17 ar
    29    13    14 ar
    30    13    35 1
    31    14    15 ar
    32    14    36 1
    33    15    16 ar
    34    15    37 1
    35    16    17 ar
    36    16    38 1
    37    17    39 1
    38    19    40 1
    39    19    41 1
    40    19    42 1
    41    20    43 1
    42    20    44 1
    43    20    45 1
    44    21    22 1
    45    21    46 1
    46    21    47 1
    47    22    23 1
    48    22    48 1
    49    22    49 1
    50    23    24 ar
    51    24    25 ar
    52    24    50 1
    53    25    26 ar
    54    25    51 1
    55    26    27 ar
    56    26    52 1
    57    27    53 1
@<TRIPOS>SUBSTRUCTURE
     1 C48         1 TEMP              0 ****  ****    0 ROOT
