@<TRIPOS>MOLECULE
molecule
   33    34     1     0     0
SMALL
bcc


@<TRIPOS>ATOM
      1 C1'          0.0000     0.0000     0.0000 c3         1 C4B       0.346500
      2 C2'          1.5300     0.0000     0.0000 c3         1 C4B       0.087100
      3 O2'          2.0080    -1.1680    -0.6700 oh         1 C4B      -0.598800
      4 C3'          2.0320     0.0000     1.4470 c3         1 C4B       0.108100
      5 O3'          3.4600     0.0730     1.4580 oh         1 C4B      -0.604800
      6 C4'          1.4520     1.2150     2.1770 c3         1 C4B       0.100100
      7 O4'          1.8550     1.1860     3.5470 oh         1 C4B      -0.601800
      8 C5'         -0.0760     1.1690     2.0930 c3         1 C4B       0.157100
      9 O5'         -0.4750     1.1380     0.7210 os         1 C4B      -0.400600
     10 C6'         -0.6630     2.4100     2.7690 c3         1 C4B       0.152400
     11 O6'         -2.0880     2.3110     2.7920 oh         1 C4B      -0.599800
     12 N1          -0.4890     0.0580    -1.3800 n          1 C4B      -0.471400
     13 C2          -1.1780    -0.9800    -1.8950 c          1 C4B       0.816500
     14 O2          -1.3960    -1.9620    -1.2140 o          1 C4B      -0.616500
     15 N3          -1.6280    -0.9260    -3.1650 ns         1 C4B      -0.573500
     16 C4          -1.3870     0.1640    -3.9200 c          1 C4B       0.808500
     17 O4          -1.7920     0.2120    -5.0640 o          1 C4B      -0.625500
     18 N5          -0.6970     1.2020    -3.4050 ns         1 C4B      -0.573500
     19 C6          -0.2520     1.1500    -2.1330 c          1 C4B       0.816500
     20 O6           0.3660     2.0880    -1.6680 o          1 C4B      -0.616500
     21 H1'         -0.3590    -0.9030     0.4780 h2         1 C4B       0.104700
     22 H2'          1.8910     0.8870    -0.5070 h1         1 C4B       0.083700
     23 HO2'         2.8270    -0.9740    -1.0950 ho         1 C4B       0.418000
     24 H3'          1.7080    -0.9070     1.9420 h1         1 C4B       0.062700
     25 HO3'         3.8090    -0.6670     1.9260 ho         1 C4B       0.416000
     26 H4'          1.8110     2.1230     1.7080 h1         1 C4B       0.065700
     27 HO4'         2.5640     1.7940     3.6790 ho         1 C4B       0.416000
     28 H5'         -0.4360     0.2770     2.5910 h1         1 C4B       0.065700
     29 H6'         -0.3710     3.2940     2.2150 h1         1 C4B       0.040700
     30 H6'A        -0.2890     2.4800     3.7830 h1         1 C4B       0.040700
     31 HO6'        -2.4430     3.0110     3.3150 ho         1 C4B       0.405000
     32 HN3         -2.1400    -1.6970    -3.5470 hn         1 C4B       0.385500
     33 HN5         -0.5200     2.0120    -3.9650 hn         1 C4B       0.385500
@<TRIPOS>BOND
     1     1     2 1
     2     1     9 1
     3     1    12 1
     4     2     3 1
     5     2     4 1
     6     4     5 1
     7     4     6 1
     8     6     7 1
     9     6     8 1
    10     8     9 1
    11     8    10 1
    12    10    11 1
    13    12    13 1
    14    12    19 1
    15    13    14 2
    16    13    15 1
    17    15    16 1
    18    16    17 2
    19    16    18 1
    20    18    19 1
    21    19    20 2
    22     1    21 1
    23     2    22 1
    24     3    23 1
    25     4    24 1
    26     5    25 1
    27     6    26 1
    28     7    27 1
    29     8    28 1
    30    10    29 1
    31    10    30 1
    32    11    31 1
    33    15    32 1
    34    18    33 1
@<TRIPOS>SUBSTRUCTURE
     1 C4B         1 TEMP              0 ****  ****    0 ROOT
