@<TRIPOS>MOLECULE
molecule
   40    41     1     0     0
SMALL
bcc


@<TRIPOS>ATOM
      1 C1           0.0000     0.0000     0.0000 c3         1 C4C       0.150600
      2 N3           1.4690     0.0000     0.0000 n3         1 C4C      -0.735600
      3 C2           1.9950     0.0000     1.3720 c3         1 C4C       0.150600
      4 C3           1.9960    -1.1390    -0.7650 c3         1 C4C       0.126800
      5 C4           3.5050    -0.9730    -0.9540 c3         1 C4C       0.238800
      6 N1           4.0280    -2.1080    -1.7160 nh         1 C4C      -0.826300
      7 C12          4.0840    -2.0480    -3.1050 ca         1 C4C       0.704200
      8 C13          3.7370    -0.8690    -3.7560 ca         1 C4C      -0.317300
      9 C14          3.7960    -0.8220    -5.1380 ca         1 C4C      -0.053000
     10 C15          4.2010    -1.9610    -5.8230 ca         1 C4C      -0.314300
     11 C16          4.5310    -3.0960    -5.1100 ca         1 C4C       0.463200
     12 N2           4.4700    -3.1110    -3.7920 nb         1 C4C      -0.769000
     13 C5           4.4970    -3.3080    -1.0170 c3         1 C4C       0.289100
     14 C6           3.3500    -4.2720    -0.8520 ca         1 C4C      -0.110300
     15 C11          3.0990    -5.2200    -1.8270 ca         1 C4C      -0.104500
     16 C10          2.0480    -6.1040    -1.6770 ca         1 C4C      -0.128500
     17 C7           2.5530    -4.2120     0.2750 ca         1 C4C      -0.104500
     18 C8           1.5050    -5.1000     0.4300 ca         1 C4C      -0.128500
     19 C9           1.2470    -6.0420    -0.5500 ca         1 C4C       0.031400
     20 Cl1         -0.0690    -7.1580    -0.3580 cl         1 C4C      -0.114400
     21 H11A        -0.3610     0.9250     0.4340 h1         1 C4C       0.032700
     22 H12         -0.3610    -0.8380     0.5840 h1         1 C4C       0.032700
     23 H13A        -0.3610    -0.0860    -1.0180 h1         1 C4C       0.032700
     24 H21          1.8610    -0.9820     1.8100 h1         1 C4C       0.032700
     25 H22          1.4610     0.7350     1.9630 h1         1 C4C       0.032700
     26 H23          3.0490     0.2470     1.3550 h1         1 C4C       0.032700
     27 H31          1.5130    -1.1770    -1.7340 h1         1 C4C       0.048200
     28 H32          1.7980    -2.0580    -0.2260 h1         1 C4C       0.048200
     29 H41          3.7030    -0.0540    -1.4920 h1         1 C4C       0.058200
     30 H42          3.9880    -0.9350     0.0150 h1         1 C4C       0.058200
     31 H13          3.4260     0.0010    -3.1900 ha         1 C4C       0.146000
     32 H14          3.5320     0.0810    -5.6740 ha         1 C4C       0.136000
     33 H15          4.2560    -1.9580    -6.9050 ha         1 C4C       0.136000
     34 H16          4.8500    -3.9860    -5.6400 h4         1 C4C       0.019100
     35 H51          4.8790    -3.0310    -0.0420 h1         1 C4C       0.063700
     36 H52          5.2840    -3.7780    -1.5930 h1         1 C4C       0.063700
     37 H11          3.7260    -5.2690    -2.7090 ha         1 C4C       0.146000
     38 H10          1.8490    -6.8440    -2.4430 ha         1 C4C       0.142500
     39 H7           2.7560    -3.4740     1.0430 ha         1 C4C       0.146000
     40 H8           0.8790    -5.0520     1.3130 ha         1 C4C       0.142500
@<TRIPOS>BOND
     1    20    19 1
     2    18    19 ar
     3    18    17 ar
     4    19    16 ar
     5    17    14 ar
     6    16    15 ar
     7    14    15 ar
     8    14    13 1
     9     3     2 1
    10    13     6 1
    11     6     5 1
    12     6     7 1
    13     2     1 1
    14     2     4 1
    15     5     4 1
    16     7     8 ar
    17     7    12 ar
    18     8     9 ar
    19    12    11 ar
    20     9    10 ar
    21    11    10 ar
    22     1    21 1
    23     1    22 1
    24     1    23 1
    25     3    24 1
    26     3    25 1
    27     3    26 1
    28     4    27 1
    29     4    28 1
    30     5    29 1
    31     5    30 1
    32     8    31 1
    33     9    32 1
    34    10    33 1
    35    11    34 1
    36    13    35 1
    37    13    36 1
    38    15    37 1
    39    16    38 1
    40    17    39 1
    41    18    40 1
@<TRIPOS>SUBSTRUCTURE
     1 C4C         1 TEMP              0 ****  ****    0 ROOT
