@<TRIPOS>MOLECULE
molecule
   72    71     1     0     0
SMALL
bcc


@<TRIPOS>ATOM
      1 C1           0.0000     0.0000     0.0000 c2         1 C4D       0.036600
      2 C2          17.2520     6.7000    14.8270 c3         1 C4D      -0.094400
      3 C3           1.5070     0.0000     0.0000 c3         1 C4D      -0.094900
      4 C4          15.5330     5.2040    15.7660 ce         1 C4D      -0.449000
      5 C5          -0.6540     0.0000     1.1350 c2         1 C4D      -0.510200
      6 C6          13.5110     5.6440    12.0440 c3         1 C4D      -0.122900
      7 C7           9.7410     4.5650     9.2740 c3         1 C4D      -0.123900
      8 C8          -0.7550     0.0050    -1.3040 c3         1 C4D      -0.094900
      9 C10          3.6610     1.1150     8.5450 c3         1 C4D      -0.128900
     10 C12         16.6920     5.8460    15.9360 c2         1 C4D       0.029600
     11 C14         17.4420     5.7180    17.2380 c3         1 C4D      -0.094400
     12 C16         14.8290     5.3250    14.5410 cf         1 C4D      -0.152000
     13 C17          0.0940    -0.1280     2.4370 c3         1 C4D      -0.089200
     14 C20         13.6510     4.6700    14.3680 ce         1 C4D      -0.073000
     15 C21         -0.2700     1.0420     3.3530 c3         1 C4D      -0.069200
     16 C22         12.9520     4.7910    13.1540 ce         1 C4D       0.000800
     17 C23          0.4780     0.9140     4.6540 c2         1 C4D      -0.086400
     18 C26         11.7690     4.1340    12.9790 cf         1 C4D      -0.396000
     19 C27          1.6380     1.5560     4.8250 ce         1 C4D      -0.168000
     20 C28         11.0720     4.2540    11.7690 cf         1 C4D      -0.145000
     21 C29          2.3420     1.4350     6.0490 ce         1 C4D      -0.090000
     22 C30          9.8790     3.5920    11.5920 ce         1 C4D      -0.068000
     23 C31          3.5200     2.0890     6.2220 cf         1 C4D      -0.130000
     24 C32          9.1820     3.7120    10.3820 ce         1 C4D      -0.015200
     25 C33          4.2190     1.9690     7.4360 cf         1 C4D       0.049800
     26 C34          7.9890     3.0490    10.2070 cf         1 C4D      -0.412000
     27 C35          5.4030     2.6260     7.6110 ce         1 C4D      -0.450000
     28 C38          7.2930     3.1680     8.9970 cf         1 C4D      -0.131000
     29 C39          6.0990     2.5060     8.8220 ce         1 C4D      -0.104000
     30 C9          -0.0800     0.0600     5.7630 c3         1 C4D      -0.061900
     31 H24         18.2060     7.1110    15.1340 hc         1 C4D       0.054200
     32 H23         17.3880     6.0950    13.9390 hc         1 C4D       0.054200
     33 H22         16.5630     7.5090    14.6120 hc         1 C4D       0.054200
     34 H3           1.8680     0.9010     0.4800 hc         1 C4D       0.052533
     35 H31          1.8680    -0.8670     0.5400 hc         1 C4D       0.052533
     36 H2           1.8680    -0.0350    -1.0210 hc         1 C4D       0.052533
     37 H4          14.9320     6.0610    15.4880 ha         1 C4D       0.309000
     38 H5          -0.1900     0.8540     1.6140 ha         1 C4D       0.329000
     39 H6          14.1570     6.4050    12.4640 hc         1 C4D       0.049700
     40 H61         12.6970     6.1170    11.5070 hc         1 C4D       0.049700
     41 H62         14.0800     5.0230    11.3630 hc         1 C4D       0.049700
     42 H71         10.4920     4.0050     8.7300 hc         1 C4D       0.051033
     43 H72         10.1910     5.4560     9.6960 hc         1 C4D       0.051033
     44 H7           8.9430     4.8490     8.5990 hc         1 C4D       0.051033
     45 H82         -0.4750     0.8780    -1.8800 hc         1 C4D       0.052533
     46 H8          -0.5120    -0.8900    -1.8650 hc         1 C4D       0.052533
     47 H81         -1.8190     0.0290    -1.1060 hc         1 C4D       0.052533
     48 H10          3.9410     0.0820     8.3820 hc         1 C4D       0.054700
     49 H102         4.0580     1.4520     9.4950 hc         1 C4D       0.054700
     50 H101         2.5800     1.1980     8.5570 hc         1 C4D       0.054700
     51 H142        16.8970     5.0600    17.9050 hc         1 C4D       0.054200
     52 H14         17.5400     6.6950    17.6960 hc         1 C4D       0.054200
     53 H141        18.4260     5.3070    17.0490 hc         1 C4D       0.054200
     54 H20         15.2300     5.9390    13.7440 ha         1 C4D       0.100000
     55 H21         -0.1760    -1.0600     2.9180 hc         1 C4D       0.059700
     56 H17          1.1600    -0.1170     2.2440 hc         1 C4D       0.059700
     57 H28         13.2490     4.0570    15.1650 ha         1 C4D       0.179000
     58 H29         -1.3360     1.0310     3.5470 hc         1 C4D       0.062700
     59 H211        -0.0010     1.9750     2.8720 hc         1 C4D       0.062700
     60 H36         12.0280     3.6050    12.0700 ha         1 C4D       0.291000
     61 H37          2.0400     2.1700     4.0280 ha         1 C4D       0.133000
     62 H38         11.4730     4.8680    10.9710 ha         1 C4D       0.098000
     63 H39          1.9410     0.8210     6.8460 ha         1 C4D       0.134000
     64 H40          9.4770     2.9780    12.3900 ha         1 C4D       0.177000
     65 H41          3.9210     2.7030     5.4250 ha         1 C4D       0.156000
     66 H42          8.2470     2.5200     9.2980 ha         1 C4D       0.293000
     67 H43          5.1450     3.1560     8.5200 ha         1 C4D       0.291000
     68 H50          7.6940     3.7810     8.1990 ha         1 C4D       0.122000
     69 H51          5.6970     1.8920     9.6190 ha         1 C4D       0.123000
     70 H9          -0.2270     0.6680     6.6470 hc         1 C4D       0.049700
     71 H92         -1.0280    -0.3610     5.4520 hc         1 C4D       0.049700
     72 H91          0.6150    -0.7410     5.9870 hc         1 C4D       0.049700
@<TRIPOS>BOND
     1     3     1 1
     2    13     5 1
     3    13    15 1
     4     1     5 2
     5     1     8 1
     6    15    17 1
     7    17    30 1
     8    17    19 2
     9    19    21 1
    10    21    23 2
    11    23    25 1
    12    25     9 1
    13    25    27 2
    14    27    29 1
    15    29    28 2
    16    28    26 1
    17    26    24 2
    18     7    24 1
    19    24    22 1
    20    22    20 2
    21    20    18 1
    22    18    16 2
    23    16     6 1
    24    16    14 1
    25    14    12 2
    26    12     4 1
    27     4    10 2
    28    10    11 1
    29    10     2 1
    30     2    31 1
    31     2    32 1
    32     2    33 1
    33     3    34 1
    34     3    35 1
    35     3    36 1
    36     4    37 1
    37     5    38 1
    38     6    39 1
    39     6    40 1
    40     6    41 1
    41     7    42 1
    42     7    43 1
    43     7    44 1
    44     8    45 1
    45     8    46 1
    46     8    47 1
    47     9    48 1
    48     9    49 1
    49     9    50 1
    50    11    51 1
    51    11    52 1
    52    11    53 1
    53    12    54 1
    54    13    55 1
    55    13    56 1
    56    14    57 1
    57    15    58 1
    58    15    59 1
    59    18    60 1
    60    19    61 1
    61    20    62 1
    62    21    63 1
    63    22    64 1
    64    23    65 1
    65    26    66 1
    66    27    67 1
    67    28    68 1
    68    29    69 1
    69    30    70 1
    70    30    71 1
    71    30    72 1
@<TRIPOS>SUBSTRUCTURE
     1 C4D         1 TEMP              0 ****  ****    0 ROOT
