@<TRIPOS>MOLECULE
C4E
   27    29     1     0     0
SMALL
bcc


@<TRIPOS>ATOM
      1 N10        -0.0040    0.0430    0.0580 nh        1 C4E     -0.581400
      2 C11         1.4050    0.0420    0.0380 ca        1 C4E      0.139600
      3 C12         2.1570   -0.0640    1.2300 ca        1 C4E     -0.177000
      4 C13         3.5430   -0.1650    1.1780 ca        1 C4E     -0.101000
      5 C14         4.2120   -0.1660   -0.0450 ca        1 C4E     -0.162000
      6 C15         3.4810   -0.0650   -1.2270 ca        1 C4E     -0.101000
      7 C16         2.0950    0.0430   -1.1970 ca        1 C4E     -0.177000
      8 C7         -0.7070    0.7980    0.9970 cc        1 C4E      0.072800
      9 C6         -0.2350    1.7330    1.9330 cd        1 C4E     -0.152100
     10 C8         -2.1460    0.7020    1.1880 ca        1 C4E     -0.212100
     11 C9         -3.1810   -0.0250    0.5980 ca        1 C4E     -0.037000
     12 C4         -2.4760    1.6130    2.2750 ca        1 C4E      0.434800
     13 N5         -1.2920    2.2220    2.7040 na        1 C4E     -0.280100
     14 N3         -3.7450    1.8060    2.7550 nb        1 C4E     -0.675000
     15 C2         -4.6890    1.0820    2.1460 ca        1 C4E      0.419200
     16 C1         -4.4670    0.1680    1.0820 ca        1 C4E     -0.283300
     17 HN10       -0.4200    0.0850   -0.8530 hn        1 C4E      0.410800
     18 H12         1.6440   -0.0860    2.2040 ha        1 C4E      0.136000
     19 H13         4.1130   -0.2520    2.1150 ha        1 C4E      0.131000
     20 H14         5.3070   -0.2470   -0.0770 ha        1 C4E      0.133000
     21 H15         4.0020   -0.0680   -2.1970 ha        1 C4E      0.131000
     22 H16         1.5390    0.1210   -2.1440 ha        1 C4E      0.136000
     23 H6          0.7850    2.0790    2.1080 h4        1 C4E      0.179000
     24 H9         -2.9750   -0.7300   -0.2200 ha        1 C4E      0.140000
     25 HN5        -1.2130    2.8570    3.4530 hn        1 C4E      0.311700
     26 H2         -5.7140    1.2350    2.5310 h4        1 C4E      0.021100
     27 H1         -5.3180   -0.3780    0.6570 ha        1 C4E      0.142000
@<TRIPOS>BOND
     1    1    2 1
     2    1    8 1
     3    1   17 1
     4    2    3 ar
     5    2    7 ar
     6    3    4 ar
     7    3   18 1
     8    4    5 ar
     9    4   19 1
    10    5    6 ar
    11    5   20 1
    12    6    7 ar
    13    6   21 1
    14    7   22 1
    15    8    9 2
    16    8   10 1
    17    9   13 1
    18    9   23 1
    19   10   11 ar
    20   10   12 ar
    21   11   16 ar
    22   11   24 1
    23   12   13 1
    24   12   14 ar
    25   13   25 1
    26   14   15 ar
    27   15   16 ar
    28   15   26 1
    29   16   27 1
@<TRIPOS>SUBSTRUCTURE
     1 C4E         1 TEMP              0 ****  ****    0 ROOT
