@<TRIPOS>MOLECULE
molecule
   32    34     1     0     0
SMALL
bcc


@<TRIPOS>ATOM
      1 C15          0.0000     0.0000     0.0000 c3         1 C4F       0.129700
      2 O14          1.4290     0.0000     0.0000 os         1 C4F      -0.330900
      3 C13          2.0470     0.0000     1.2110 ca         1 C4F       0.144100
      4 C16          1.2920     0.0000     2.3750 ca         1 C4F      -0.224000
      5 C17          1.9230    -0.0010     3.6050 ca         1 C4F      -0.088000
      6 C18          3.3030    -0.0010     3.6750 ca         1 C4F      -0.164000
      7 C12          3.4330    -0.0060     1.2850 ca         1 C4F      -0.151000
      8 C11          4.0570    -0.0010     2.5170 ca         1 C4F      -0.040300
      9 C10          5.5610     0.0010     2.5980 c3         1 C4F       0.042100
     10 C9           6.0640    -1.4200     2.6240 cc         1 C4F      -0.143400
     11 C1           6.3220    -2.2760     1.4650 ca         1 C4F      -0.212100
     12 C8           6.3680    -2.1400     3.7150 cd         1 C4F      -0.088100
     13 N7           6.7920    -3.3890     3.3460 na         1 C4F      -0.279100
     14 C6           6.7760    -3.5060     1.9780 ca         1 C4F       0.469800
     15 N5           7.0920    -4.4910     1.1460 nb         1 C4F      -0.716000
     16 C4           6.9920    -4.3530    -0.1580 ca         1 C4F       0.448200
     17 C3           6.5520    -3.1700    -0.7320 ca         1 C4F      -0.287300
     18 C2           6.2080    -2.1070     0.0830 ca         1 C4F      -0.044000
     19 H15         -0.3610     0.8840     0.5110 h1         1 C4F       0.041033
     20 H15A        -0.3610     0.0000    -1.0210 h1         1 C4F       0.041033
     21 H15B        -0.3610    -0.8850     0.5110 h1         1 C4F       0.041033
     22 H16          0.2100    -0.0000     2.3210 ha         1 C4F       0.133000
     23 H17          1.3340    -0.0010     4.5140 ha         1 C4F       0.129000
     24 H18          3.7940     0.0010     4.6400 ha         1 C4F       0.127000
     25 H12          4.0240    -0.0060     0.3770 ha         1 C4F       0.142000
     26 H10          5.9690     0.5120     1.7340 hc         1 C4F       0.055200
     27 H10A         5.8740     0.5110     3.5000 hc         1 C4F       0.055200
     28 H8           6.2890    -1.7860     4.7360 h4         1 C4F       0.169000
     29 HN7          7.0750    -4.1090     3.9810 hn         1 C4F       0.304700
     30 H4           7.2600    -5.1840    -0.7990 h4         1 C4F       0.022100
     31 H3           6.4770    -3.0800    -1.8090 ha         1 C4F       0.138000
     32 H2           5.8610    -1.1720    -0.3380 ha         1 C4F       0.137000
@<TRIPOS>BOND
     1     1     2 1
     2     2     3 1
     3     3     4 ar
     4     3     7 ar
     5     4     5 ar
     6     5     6 ar
     7     6     8 ar
     8     7     8 ar
     9     8     9 1
    10     9    10 1
    11    10    11 1
    12    10    12 2
    13    11    14 ar
    14    11    18 ar
    15    12    13 1
    16    13    14 1
    17    14    15 ar
    18    15    16 ar
    19    16    17 ar
    20    17    18 ar
    21     1    19 1
    22     1    20 1
    23     1    21 1
    24     4    22 1
    25     5    23 1
    26     6    24 1
    27     7    25 1
    28     9    26 1
    29     9    27 1
    30    12    28 1
    31    13    29 1
    32    16    30 1
    33    17    31 1
    34    18    32 1
@<TRIPOS>SUBSTRUCTURE
     1 C4F         1 TEMP              0 ****  ****    0 ROOT
