@<TRIPOS>MOLECULE
C4F
   32    34     1     0     0
SMALL
bcc


@<TRIPOS>ATOM
      1 C15        -0.0590   -0.4700    0.1810 c3        1 C4F      0.113700
      2 O14         1.3530   -0.6190    0.2680 os        1 C4F     -0.327900
      3 C13         1.9370   -0.2080    1.4510 ca        1 C4F      0.125100
      4 C16         1.2400    0.3620    2.5220 ca        1 C4F     -0.206000
      5 C17         1.9480    0.7410    3.6630 ca        1 C4F     -0.096000
      6 C18         3.3250    0.5580    3.7390 ca        1 C4F     -0.165000
      7 C12         3.3290   -0.3990    1.5170 ca        1 C4F     -0.148000
      8 C11         4.0210   -0.0130    2.6640 ca        1 C4F     -0.045300
      9 C10         5.5040   -0.1810    2.7340 c3        1 C4F      0.035100
     10 C9          5.9410   -1.5780    2.5780 cc        1 C4F     -0.128400
     11 C1          6.3550   -2.2150    1.3500 ca        1 C4F     -0.190100
     12 C8          6.0560   -2.5320    3.5910 cd        1 C4F     -0.092100
     13 N7          6.5280   -3.7410    3.0770 na        1 C4F     -0.286100
     14 C6          6.7200   -3.5850    1.6960 ca        1 C4F      0.421800
     15 N5          7.1680   -4.5140    0.7970 nb        1 C4F     -0.671000
     16 C4          7.2540   -4.0750   -0.4630 ca        1 C4F      0.412200
     17 C3          6.9240   -2.7660   -0.9010 ca        1 C4F     -0.274300
     18 C2          6.4700   -1.8270    0.0130 ca        1 C4F     -0.050000
     19 H15        -0.3470    0.6070    0.2530 h1        1 C4F      0.043367
     20 H15A       -0.3020   -0.8750   -0.8340 h1        1 C4F      0.043367
     21 H15B       -0.5700   -1.0650    0.9760 h1        1 C4F      0.043367
     22 H16         0.1530    0.5140    2.4780 ha        1 C4F      0.136000
     23 H17         1.4080    1.1900    4.5100 ha        1 C4F      0.130000
     24 H18         3.8700    0.8640    4.6440 ha        1 C4F      0.130000
     25 H12         3.8580   -0.8580    0.6690 ha        1 C4F      0.153000
     26 H10         5.9700    0.4410    1.9190 hc        1 C4F      0.056200
     27 H10A        5.8830    0.2190    3.7150 hc        1 C4F      0.056200
     28 H8          5.8350   -2.4350    4.6560 h4        1 C4F      0.170000
     29 HN7         6.6740   -4.5740    3.5830 hn        1 C4F      0.309700
     30 H4          7.6150   -4.8240   -1.1920 h4        1 C4F      0.020100
     31 H3          7.0310   -2.5140   -1.9630 ha        1 C4F      0.141000
     32 H2          6.2040   -0.8060   -0.2960 ha        1 C4F      0.140000
@<TRIPOS>BOND
     1    1    2 1   
     2    1   19 1   
     3    1   20 1   
     4    1   21 1   
     5    2    3 1   
     6    3    4 ar  
     7    3    7 ar  
     8    4    5 ar  
     9    4   22 1   
    10    5    6 ar  
    11    5   23 1   
    12    6    8 ar  
    13    6   24 1   
    14    7    8 ar  
    15    7   25 1   
    16    8    9 1   
    17    9   10 1   
    18    9   26 1   
    19    9   27 1   
    20   10   11 1   
    21   10   12 2   
    22   11   14 ar  
    23   11   18 ar  
    24   12   13 1   
    25   12   28 1   
    26   13   14 1   
    27   13   29 1   
    28   14   15 ar  
    29   15   16 ar  
    30   16   17 ar  
    31   16   30 1   
    32   17   18 ar  
    33   17   31 1   
    34   18   32 1   
@<TRIPOS>SUBSTRUCTURE
     1 C4F         1 TEMP              0 ****  ****    0 ROOT
