@<TRIPOS>MOLECULE
C4G
   38    37     1     0     0
SMALL
bcc


@<TRIPOS>ATOM
      1 N            0.0000     0.0000     0.0000 nz         1 C4G       0.043400
      2 CA           1.4680     0.0000     0.0000 c3         1 C4G      -0.114500
      3 C            1.9710    -1.2310    -0.7100 c          1 C4G       0.946600
      4 O            1.2460    -2.1860    -0.8490 o          1 C4G      -0.800800
      5 CB           1.9780     0.0000     1.4430 c3         1 C4G      -0.198400
      6 CG           1.5730     1.3080     2.1270 c3         1 C4G       0.004600
      7 CD           2.0830     1.3070     3.5700 c3         1 C4G       0.181800
      8 NE           1.6950     2.5590     4.2250 nu         1 C4G      -0.551200
      9 CZ           2.0450     2.7870     5.5350 c2         1 C4G       0.560100
     10 NH1          2.7220     1.8890     6.1940 n2         1 C4G      -0.855100
     11 NH2          1.6810     3.9610     6.1490 nu         1 C4G      -0.504200
     12 C01          1.5310     5.5730     7.9820 c3         1 C4G      -0.053400
     13 C02          2.0540     4.2040     7.5450 c3         1 C4G       0.204800
     14 C03          1.9210     5.8270     9.4390 c3         1 C4G      -0.045200
     15 N01          1.4180     7.1420     9.8600 nz         1 C4G       0.086400
     16 H1          -0.3340    -0.5470     0.7690 hn         1 C4G       0.217133
     17 H2          -0.3340    -0.3920    -0.8580 hn         1 C4G       0.217133
     18 H4           1.8300     0.8840    -0.5110 hx         1 C4G       0.065700
     19 H6           2.3650     0.7170     0.7280 hc         1 C4G       0.102200
     20 H7           2.8720    -0.5340     1.7440 hc         1 C4G       0.102200
     21 H8           2.0060     2.1440     1.5910 hc         1 C4G      -0.002800
     22 H9           0.4940     1.3970     2.1250 hc         1 C4G      -0.002800
     23 H10          3.1620     1.2180     3.5720 h1         1 C4G       0.032200
     24 H11          1.6500     0.4700     4.1050 h1         1 C4G       0.032200
     25 H12          1.1540     3.2370     3.7260 hn         1 C4G       0.285800
     26 H13          2.9870     1.0340     5.7470 hn         1 C4G       0.352400
     27 H14          1.1560     4.6480     5.6440 hn         1 C4G       0.283800
     28 H15          0.4520     5.5950     7.8870 hc         1 C4G       0.033200
     29 H16          1.9640     6.3420     7.3530 hc         1 C4G       0.033200
     30 H17          3.1330     4.1830     7.6400 h1         1 C4G       0.036700
     31 H18          1.6210     3.4350     8.1740 h1         1 C4G       0.036700
     32 H19          3.0000     5.8060     9.5340 hx         1 C4G       0.090700
     33 H20          1.4890     5.0570    10.0680 hx         1 C4G       0.090700
     34 H21          1.6730     7.3070    10.8130 hn         1 C4G       0.224467
     35 H22          0.4210     7.1610     9.7730 hn         1 C4G       0.224467
     36 O1           3.2250    -1.2630    -1.1880 o          1 C4G      -0.800800
     37 HN3         -0.3340     0.9390     0.0890 hn         1 C4G       0.217133
     38 H013         1.8190     7.8530     9.2800 hn         1 C4G       0.224467
@<TRIPOS>BOND
     1     1     2 1   
     2     1    16 1   
     3     1    17 1   
     4     1    37 1   
     5     2     3 1   
     6     2     5 1   
     7     2    18 1   
     8     3     4 1   
     9     3    36 1   
    10     5     6 1   
    11     5    19 1   
    12     5    20 1   
    13     6     7 1   
    14     6    21 1   
    15     6    22 1   
    16     7     8 1   
    17     7    23 1   
    18     7    24 1   
    19     8     9 1   
    20     8    25 1   
    21     9    10 2   
    22     9    11 1   
    23    10    26 1   
    24    11    13 1   
    25    11    27 1   
    26    12    13 1   
    27    12    14 1   
    28    12    28 1   
    29    12    29 1   
    30    13    30 1   
    31    13    31 1   
    32    14    15 1   
    33    14    32 1   
    34    14    33 1   
    35    15    34 1   
    36    15    35 1   
    37    15    38 1   
@<TRIPOS>SUBSTRUCTURE
     1 C4G         1 TEMP              0 ****  ****    0 ROOT
