@<TRIPOS>MOLECULE
molecule
   54    55     1     0     0
SMALL
bcc


@<TRIPOS>ATOM
      1 C1           0.0000     0.0000     0.0000 ca         1 C4H      -0.044000
      2 C2           1.4030     0.0000     0.0000 ca         1 C4H      -0.033000
      3 C3          -0.7320     0.0120    -1.2060 ca         1 C4H       0.086600
      4 N4          -0.0700     0.0190    -2.4320 nh         1 C4H      -0.568000
      5 C5          -0.4860    -1.1960    -3.1440 c3         1 C4H       0.128100
      6 C6          -0.6000     1.1570    -3.1920 c3         1 C4H       0.128100
      7 C7          -2.1110     0.0110    -1.1610 ca         1 C4H      -0.176000
      8 C8          -2.7830     0.0040     0.0570 ca         1 C4H      -0.091000
      9 C9          -2.1010    -0.0010     1.2360 ca         1 C4H      -0.144000
     10 C10         -0.6960     0.0000     1.2340 ca         1 C4H       0.050000
     11 C11          0.0330    -0.0050     2.4360 ca         1 C4H      -0.317500
     12 C12          1.3940    -0.0010     2.3980 ca         1 C4H       0.004000
     13 C13          2.0770     0.0000     1.1830 ca         1 C4H      -0.174000
     14 S14         -0.8080    -0.0060     3.9840 sy         1 C4H       1.430200
     15 N15         -1.6510    -1.4290     4.0880 n7         1 C4H      -0.917100
     16 C16         -0.9320    -2.7040     4.1280 c3         1 C4H       0.234800
     17 C17         -1.8720    -3.8040     4.6240 c3         1 C4H      -0.087400
     18 C18         -1.1210    -5.1370     4.6660 c3         1 C4H      -0.101400
     19 C19         -2.0610    -6.2370     5.1630 c3         1 C4H       0.113000
     20 N20         -1.3420    -7.5130     5.2030 ns         1 C4H      -0.587900
     21 C21         -1.9760    -8.6310     5.6100 c          1 C4H       0.660100
     22 O22         -3.1400    -8.5800     5.9450 o          1 C4H      -0.609100
     23 C23         -1.2360    -9.9430     5.6520 c3         1 C4H      -0.143400
     24 C24         -2.1770   -11.0430     6.1470 c3         1 C4H       0.061700
     25 S25         -1.2870   -12.6230     6.1970 sh         1 C4H      -0.446900
     26 O26          0.2070    -0.0840     4.9750 o          1 C4H      -0.637300
     27 O27         -1.7900     1.0170     3.8890 o          1 C4H      -0.637300
     28 H2           1.9470     0.0010    -0.9370 ha         1 C4H       0.157000
     29 H51         -1.4870    -1.0600    -3.5350 h1         1 C4H       0.041367
     30 H52          0.1980    -1.3880    -3.9620 h1         1 C4H       0.041367
     31 H53         -0.4770    -2.0360    -2.4600 h1         1 C4H       0.041367
     32 H61          0.0850     1.4070    -3.9930 h1         1 C4H       0.041367
     33 H62         -1.5640     0.8950    -3.6100 h1         1 C4H       0.041367
     34 H63         -0.7120     2.0110    -2.5340 h1         1 C4H       0.041367
     35 H7          -2.6770     0.0150    -2.0840 ha         1 C4H       0.134000
     36 H8          -3.8660     0.0030     0.0680 ha         1 C4H       0.134000
     37 H9          -2.6410    -0.0060     2.1750 ha         1 C4H       0.147000
     38 H12          1.9540    -0.0010     3.3250 ha         1 C4H       0.154000
     39 H13          3.1600     0.0040     1.1800 ha         1 C4H       0.137000
     40 H15         -2.6480    -1.4140     4.1690 hn         1 C4H       0.454800
     41 H161        -0.0870    -2.6220     4.8010 h1         1 C4H       0.049700
     42 H162        -0.5800    -2.9520     3.1340 h1         1 C4H       0.049700
     43 H171        -2.2250    -3.5560     5.6180 hc         1 C4H       0.053700
     44 H172        -2.7180    -3.8870     3.9520 hc         1 C4H       0.053700
     45 H181        -0.7680    -5.3840     3.6720 hc         1 C4H       0.049200
     46 H182        -0.2750    -5.0540     5.3390 hc         1 C4H       0.049200
     47 H191        -2.9070    -6.3200     4.4900 h1         1 C4H       0.055700
     48 H192        -2.4130    -5.9890     6.1570 h1         1 C4H       0.055700
     49 H20         -0.3810    -7.5540     4.9270 hn         1 C4H       0.314500
     50 H231        -0.3910    -9.8600     6.3250 hc         1 C4H       0.074200
     51 H232        -0.8830   -10.1900     4.6580 hc         1 C4H       0.074200
     52 H241        -2.5290   -10.7960     7.1410 h1         1 C4H       0.073200
     53 H242        -3.0220   -11.1260     5.4750 h1         1 C4H       0.073200
     54 H25         -2.1030   -13.5770     6.6280 hs         1 C4H       0.228800
@<TRIPOS>BOND
     1     1     2 ar
     2     1     3 ar
     3     1    10 ar
     4     2    13 ar
     5     2    28 1
     6     3     4 1
     7     3     7 ar
     8     4     5 1
     9     4     6 1
    10     5    29 1
    11     5    30 1
    12     5    31 1
    13     6    32 1
    14     6    33 1
    15     6    34 1
    16     7     8 ar
    17     7    35 1
    18     8     9 ar
    19     8    36 1
    20     9    10 ar
    21     9    37 1
    22    10    11 ar
    23    11    12 ar
    24    11    14 1
    25    12    13 ar
    26    12    38 1
    27    13    39 1
    28    14    15 1
    29    14    26 2
    30    14    27 2
    31    15    16 1
    32    15    40 1
    33    16    17 1
    34    16    41 1
    35    16    42 1
    36    17    18 1
    37    17    43 1
    38    17    44 1
    39    18    19 1
    40    18    45 1
    41    18    46 1
    42    19    20 1
    43    19    47 1
    44    19    48 1
    45    20    21 1
    46    20    49 1
    47    21    22 2
    48    21    23 1
    49    23    24 1
    50    23    50 1
    51    23    51 1
    52    24    25 1
    53    24    52 1
    54    24    53 1
    55    25    54 1
@<TRIPOS>SUBSTRUCTURE
     1 C4H         1 TEMP              0 ****  ****    0 ROOT
