@<TRIPOS>MOLECULE
molecule
   52    56     1     0     0
SMALL
bcc


@<TRIPOS>ATOM
      1 C1           0.0000     0.0000     0.0000 ca         1 C4K      -0.217600
      2 C2           1.4090     0.0000     0.0000 ca         1 C4K       0.220100
      3 C3           2.1050     0.0000     1.1890 ca         1 C4K      -0.258000
      4 O5           2.0830     0.0000    -1.1770 oh         1 C4K      -0.481100
      5 C8           0.0070    -0.0010     2.4070 ca         1 C4K      -0.297900
      6 C9           1.4180    -0.0010     2.4010 ca         1 C4K       0.032800
      7 C12         -0.3950    -0.0010     3.8120 cc         1 C4K       0.432900
      8 C13         -1.8100    -0.0020     4.3310 c3         1 C4K      -0.427400
      9 C14         -2.2820    -1.4220     4.5040 ca         1 C4K       0.006700
     10 C15         -2.0860    -2.0740     5.7070 ca         1 C4K      -0.056000
     11 C16         -3.1480    -4.0290     4.8210 ca         1 C4K      -0.103000
     12 C19         -2.9160    -2.0710     3.4610 ca         1 C4K      -0.212000
     13 C21         -2.5120    -0.4430    -5.0040 ca         1 C4K      -0.098000
     14 C22         -1.8870    -0.3510    -3.7760 ca         1 C4K      -0.130000
     15 C24         -3.9980    -0.6950    -2.6770 ca         1 C4K      -0.139000
     16 N25         -1.9160    -0.6380    -1.3780 n          1 C4K      -0.385000
     17 C27         -3.8950    -0.6640    -5.0730 ca         1 C4K       0.051100
     18 C30         -6.0670    -1.0080    -5.6820 c3         1 C4K       0.349200
     19 C4          -0.6970    -0.0010     1.2030 ca         1 C4K      -0.011000
     20 C6          -0.7360     0.0060    -1.2770 c          1 C4K       0.689700
     21 O7          -0.2800     0.5920    -2.2400 o          1 C4K      -0.581100
     22 N10          1.8170    -0.0010     3.7100 na         1 C4K      -0.055100
     23 N11          0.6870    -0.0010     4.5350 nd         1 C4K      -0.477100
     24 C17         -3.3490    -3.3750     3.6190 ca         1 C4K      -0.070300
     25 C18         -2.5180    -3.3780     5.8650 ca         1 C4K      -0.129000
     26 C23         -2.6280    -0.4760    -2.6100 ca         1 C4K       0.062600
     27 C26         -2.3820    -1.4520    -0.2890 c3         1 C4K       0.088300
     28 C28         -4.6320    -0.7890    -3.9240 ca         1 C4K       0.058100
     29 O29         -5.9840    -1.0030    -4.2810 os         1 C4K      -0.343900
     30 O31         -4.7580    -0.7950    -6.1510 os         1 C4K      -0.341900
     31 H1           3.1880     0.0000     1.1830 ha         1 C4K       0.139000
     32 H2           2.8300     0.5720    -1.1110 ho         1 C4K       0.429000
     33 H3          -2.3210     0.8900     3.9880 hc         1 C4K       0.180200
     34 H4          -2.3290    -0.8790     3.9650 hc         1 C4K       0.180200
     35 H5          -1.5930    -1.5630     6.5250 ha         1 C4K       0.166000
     36 H6          -3.4870    -5.0500     4.9450 ha         1 C4K       0.140000
     37 H7          -3.0730    -1.5590     2.5190 ha         1 C4K       0.138000
     38 H8          -5.1000    -3.8930     2.5260 hc         1 C4K       0.048367
     39 H9          -3.6420    -3.7210     1.5390 hc         1 C4K       0.048367
     40 H10         -3.8560    -5.1500     2.5590 hc         1 C4K       0.048367
     41 H12         -0.8180    -0.1800    -3.7230 ha         1 C4K       0.204000
     42 H13         -4.5760    -0.7940    -1.7670 ha         1 C4K       0.142000
     43 H14         -6.7170    -0.2080    -6.0180 h2         1 C4K       0.054200
     44 H15         -6.4350    -1.9660    -6.0290 h2         1 C4K       0.054200
     45 H16         -1.7800    -0.0010     1.2010 ha         1 C4K       0.141000
     46 H17          2.7630     0.0000     4.0370 hn         1 C4K       0.332700
     47 H18         -2.3640    -3.8890     6.8080 ha         1 C4K       0.142000
     48 H19         -2.8890    -2.3250    -0.6820 h1         1 C4K       0.045367
     49 H20         -1.5390    -1.7660     0.3150 h1         1 C4K       0.045367
     50 H21         -3.0700    -0.8800     0.3210 h1         1 C4K       0.045367
     51 C20         -4.0350    -4.0850     2.4810 c3         1 C4K      -0.050800
     52 H11         -1.9330    -0.3450    -5.9150 ha         1 C4K       0.150000
@<TRIPOS>BOND
     1    27    16 1
     2    21    20 2
     3    16    20 1
     4    16    26 1
     5    20     1 1
     6    11    25 ar
     7    11    24 ar
     8    25    10 ar
     9    14    26 ar
    10    14    13 ar
    11    26    15 ar
    12     1    19 ar
    13     1     2 ar
    14    51    24 1
    15     4     2 1
    16    24    12 ar
    17    13    17 ar
    18    10     9 ar
    19    19     5 ar
    20     2     3 ar
    21    15    28 ar
    22    12     9 ar
    23     9     8 1
    24    17    28 ar
    25    17    30 1
    26    28    29 1
    27     5     6 ar
    28     5     7 1
    29     3     6 ar
    30    30    18 1
    31     6    22 1
    32     8     7 1
    33     7    23 2
    34    29    18 1
    35    22    23 1
    36     3    31 1
    37     4    32 1
    38     8    33 1
    39     8    34 1
    40    10    35 1
    41    11    36 1
    42    12    37 1
    43    51    38 1
    44    51    39 1
    45    51    40 1
    46    13    52 1
    47    14    41 1
    48    15    42 1
    49    18    43 1
    50    18    44 1
    51    19    45 1
    52    22    46 1
    53    25    47 1
    54    27    48 1
    55    27    49 1
    56    27    50 1
@<TRIPOS>SUBSTRUCTURE
     1 C4K         1 TEMP              0 ****  ****    0 ROOT
