@<TRIPOS>MOLECULE
C4K
   52    57     1     0     0
SMALL
bcc


@<TRIPOS>ATOM
      1 C1           0.0000     0.0000     0.0000 ca         1 C4K      -0.215000
      2 C2           1.4090     0.0000     0.0000 ca         1 C4K       0.200000
      3 C3           2.1050     0.0000     1.1890 ca         1 C4K      -0.236000
      4 O5           2.0830     0.0000    -1.1770 oh         1 C4K      -0.216000
      5 C8           0.0070    -0.0010     2.4070 ca         1 C4K      -0.229000
      6 C9           1.4180    -0.0010     2.4010 ca         1 C4K      -0.079000
      7 C12         -0.3950    -0.0010     3.8120 c2         1 C4K       0.008000
      8 C13         -1.8100    -0.0020     4.3310 c3         1 C4K      -0.341000
      9 C14         -2.2820    -1.4220     4.5040 c3         1 C4K       0.085000
     10 C15         -2.0860    -2.0740     5.7070 c2         1 C4K      -0.063000
     11 C16         -3.1480    -4.0290     4.8210 c2         1 C4K      -0.089000
     12 C19         -2.9160    -2.0710     3.4610 c2         1 C4K      -0.202000
     13 C21         -2.5120    -0.4430    -5.0040 ca         1 C4K      -0.064000
     14 C22         -1.8870    -0.3510    -3.7760 ca         1 C4K      -0.128000
     15 C24         -3.9980    -0.6950    -2.6770 ca         1 C4K      -0.113000
     16 N25         -1.9160    -0.6380    -1.3780 n          1 C4K       0.098000
     17 C27         -3.8950    -0.6640    -5.0730 ca         1 C4K       0.011000
     18 C30         -6.0670    -1.0080    -5.6820 c3         1 C4K       0.226000
     19 C4          -0.6970    -0.0010     1.2030 ca         1 C4K       0.016000
     20 C6          -0.7360     0.0060    -1.2770 c2         1 C4K       0.287000
     21 O7          -0.2800     0.5920    -2.2400 o          1 C4K      -0.384000
     22 N10          1.8170    -0.0010     3.7100 na         1 C4K       0.231000
     23 N11          0.6870    -0.0010     4.5350 n2         1 C4K      -0.140000
     24 C17         -3.3490    -3.3750     3.6190 c2         1 C4K      -0.063000
     25 C18         -2.5180    -3.3780     5.8650 c2         1 C4K      -0.091000
     26 C23         -2.6280    -0.4760    -2.6100 ca         1 C4K      -0.064000
     27 C26         -2.3820    -1.4520    -0.2890 c3         1 C4K      -0.116000
     28 C28         -4.6320    -0.7890    -3.9240 ca         1 C4K       0.017000
     29 O29         -5.9840    -1.0030    -4.2810 os         1 C4K      -0.212000
     30 O31         -4.7580    -0.7950    -6.1510 os         1 C4K      -0.208000
     31 H1           3.1880     0.0000     1.1830 ha         1 C4K       0.117000
     32 H2           2.8300     0.5720    -1.1110 ho         1 C4K       0.206000
     33 H3          -2.3210     0.8900     3.9880 hc         1 C4K       0.153000
     34 H4          -2.3290    -0.8790     3.9650 DU         1 C4K       0.150000
     35 H5          -1.5930    -1.5630     6.5250 ha         1 C4K       0.132000
     36 H6          -3.4870    -5.0500     4.9450 ha         1 C4K       0.110000
     37 H7          -3.0730    -1.5590     2.5190 ha         1 C4K       0.117000
     38 H8          -5.1000    -3.8930     2.5260 hc         1 C4K       0.049667
     39 H9          -3.6420    -3.7210     1.5390 hc         1 C4K       0.049667
     40 H10         -3.8560    -5.1500     2.5590 hc         1 C4K       0.049667
     41 H12         -0.8180    -0.1800    -3.7230 ha         1 C4K       0.185000
     42 H13         -4.5760    -0.7940    -1.7670 ha         1 C4K       0.114000
     43 H14         -6.7170    -0.2080    -6.0180 h2         1 C4K       0.040500
     44 H15         -6.4350    -1.9660    -6.0290 h2         1 C4K       0.040500
     45 H16         -1.7800    -0.0010     1.2010 ha         1 C4K       0.116000
     46 H17          2.7630     0.0000     4.0370 hn         1 C4K       0.106000
     47 H18         -2.3640    -3.8890     6.8080 ha         1 C4K       0.108000
     48 H19         -2.8890    -2.3250    -0.6820 h1         1 C4K       0.061000
     49 H20         -1.5390    -1.7660     0.3150 h1         1 C4K       0.061000
     50 H21         -3.0700    -0.8800     0.3210 h1         1 C4K       0.061000
     51 C20         -4.0350    -4.0850     2.4810 c3         1 C4K      -0.065000
     52 H11         -1.9330    -0.3450    -5.9150 ha         1 C4K       0.114000
@<TRIPOS>BOND
     1     1     2 1   
     2     1    19 1   
     3     1    20 1   
     4     2     3 1   
     5     2     4 1   
     6     3     6 1   
     7     3    31 1   
     8     4    32 1   
     9     5     6 1   
    10     5     7 1   
    11     5    19 1   
    12     6    22 1   
    13     7     8 1   
    14     7    23 1   
    15     8     9 1   
    16     8    33 1   
    17     8    34 1   
    18     9    10 1   
    19     9    12 1   
    20     9    34 1   
    21    10    25 1   
    22    10    35 1   
    23    11    24 1   
    24    11    25 1   
    25    11    36 1   
    26    12    24 1   
    27    12    37 1   
    28    13    14 1   
    29    13    17 1   
    30    13    52 1   
    31    14    26 1   
    32    14    41 1   
    33    15    26 1   
    34    15    28 1   
    35    15    42 1   
    36    16    20 1   
    37    16    26 1   
    38    16    27 1   
    39    17    28 1   
    40    17    30 1   
    41    18    29 1   
    42    18    30 1   
    43    18    43 1   
    44    18    44 1   
    45    19    45 1   
    46    20    21 1   
    47    22    23 1   
    48    22    46 1   
    49    24    51 1   
    50    25    47 1   
    51    27    48 1   
    52    27    49 1   
    53    27    50 1   
    54    28    29 1   
    55    38    51 1   
    56    39    51 1   
    57    40    51 1   
@<TRIPOS>SUBSTRUCTURE
     1 C4K         1 TEMP              0 ****  ****    0 ROOT
