@<TRIPOS>MOLECULE
C4L
   27    26     1     0     0
SMALL
bcc


@<TRIPOS>ATOM
      1 O1           0.0000     0.0000     0.0000 o          1 C4L      -0.889300
      2 C4           1.2090     0.0000     0.0000 c          1 C4L       0.977600
      3 O2           1.8790     0.0070    -1.1630 o          1 C4L      -0.889300
      4 C3           1.9620     0.0000     1.3050 c3         1 C4L      -0.097300
      5 C2           2.8420    -1.2500     1.3850 c3         1 C4L      -0.032400
      6 C1           3.6990    -1.1890     2.6500 c3         1 C4L       0.209400
      7 O3           4.5220    -2.3560     2.7260 oh         1 C4L      -0.598800
      8 N1           1.0110    -0.0010     2.4180 ns         1 C4L      -0.144900
      9 C5           0.4950     1.1620     2.8650 c          1 C4L       0.568100
     10 O4           0.8200     2.2080     2.3450 o          1 C4L      -0.663100
     11 C6          -0.4840     1.1610     4.0110 c3         1 C4L      -0.102400
     12 C7          -0.9110     2.5980     4.3170 c3         1 C4L      -0.014400
     13 C8          -1.9040     2.5970     5.4800 c3         1 C4L       0.000900
     14 H2           2.5850     0.8840     1.3620 h1         1 C4L       0.054700
     15 H3           3.4850    -1.2950     0.5140 hc         1 C4L       0.037700
     16 H4           2.2140    -2.1320     1.4160 hc         1 C4L       0.037700
     17 H5           4.3270    -0.3060     2.6190 h1         1 C4L      -0.021800
     18 H6           3.0560    -1.1440     3.5210 h1         1 C4L      -0.021800
     19 H7           5.1110    -2.2790     3.4580 ho         1 C4L       0.371000
     20 H8           0.7130    -0.8670     2.8210 hn         1 C4L       0.153500
     21 H9          -1.3540     0.5750     3.7420 hc         1 C4L       0.017200
     22 H10         -0.0140     0.7290     4.8870 hc         1 C4L       0.017200
     23 H11         -1.3800     3.0300     3.4410 hc         1 C4L       0.028200
     24 H12         -0.0400     3.1840     4.5860 hc         1 C4L       0.028200
     25 H13         -2.2070     3.6150     5.6970 hc         1 C4L      -0.008300
     26 H14         -2.7750     2.0110     5.2110 hc         1 C4L      -0.008300
     27 H15         -1.4350     2.1660     6.3560 hc         1 C4L      -0.008300
@<TRIPOS>BOND
     1     1     2 1   
     2     2     3 1   
     3     2     4 1   
     4     4     5 1   
     5     4     8 1   
     6     4    14 1   
     7     5     6 1   
     8     5    15 1   
     9     5    16 1   
    10     6     7 1   
    11     6    17 1   
    12     6    18 1   
    13     7    19 1   
    14     8     9 1   
    15     8    20 1   
    16     9    10 2   
    17     9    11 1   
    18    11    12 1   
    19    11    21 1   
    20    11    22 1   
    21    12    13 1   
    22    12    23 1   
    23    12    24 1   
    24    13    25 1   
    25    13    26 1   
    26    13    27 1   
@<TRIPOS>SUBSTRUCTURE
     1 C4L         1 TEMP              0 ****  ****    0 ROOT
