@<TRIPOS>MOLECULE
molecule
   27    26     1     0     0
SMALL
bcc


@<TRIPOS>ATOM
      1 O1           0.0000     0.0000     0.0000 o          1 C4L      -0.838800
      2 C4           1.2090     0.0000     0.0000 c          1 C4L       0.887600
      3 O2           1.8790     0.0070    -1.1630 o          1 C4L      -0.838800
      4 C3           1.9620     0.0000     1.3050 c3         1 C4L       0.005700
      5 C2           2.8420    -1.2500     1.3850 c3         1 C4L      -0.073400
      6 C1           3.6990    -1.1890     2.6500 c3         1 C4L       0.128400
      7 O3           4.5220    -2.3560     2.7260 oh         1 C4L      -0.620800
      8 N1           1.0110    -0.0010     2.4180 ns         1 C4L      -0.552900
      9 C5           0.4950     1.1620     2.8650 c          1 C4L       0.661100
     10 O4           0.8200     2.2080     2.3450 o          1 C4L      -0.622100
     11 C6          -0.4840     1.1610     4.0110 c3         1 C4L      -0.160400
     12 C7          -0.9110     2.5980     4.3170 c3         1 C4L      -0.066400
     13 C8          -1.9040     2.5970     5.4800 c3         1 C4L      -0.096100
     14 H2           2.5850     0.8840     1.3620 h1         1 C4L       0.072700
     15 H3           3.4850    -1.2950     0.5140 hc         1 C4L       0.065700
     16 H4           2.2140    -2.1320     1.4160 hc         1 C4L       0.065700
     17 H5           4.3270    -0.3060     2.6190 h1         1 C4L       0.012700
     18 H6           3.0560    -1.1440     3.5210 h1         1 C4L       0.012700
     19 H7           5.1110    -2.2790     3.4580 ho         1 C4L       0.381000
     20 H8           0.7130    -0.8670     2.8210 hn         1 C4L       0.295500
     21 H9          -1.3540     0.5750     3.7420 hc         1 C4L       0.047700
     22 H10         -0.0140     0.7290     4.8870 hc         1 C4L       0.047700
     23 H11         -1.3800     3.0300     3.4410 hc         1 C4L       0.056700
     24 H12         -0.0400     3.1840     4.5860 hc         1 C4L       0.056700
     25 H13         -2.2070     3.6150     5.6970 hc         1 C4L       0.024033
     26 H14         -2.7750     2.0110     5.2110 hc         1 C4L       0.024033
     27 H15         -1.4350     2.1660     6.3560 hc         1 C4L       0.024033
@<TRIPOS>BOND
     1     7     6 1
     2     1     2 1
     3     2     4 1
     4     2     3 1
     5     6     5 1
     6    10     9 2
     7     4     5 1
     8     4     8 1
     9     9     8 1
    10     9    11 1
    11    13    12 1
    12    12    11 1
    13     4    14 1
    14     5    15 1
    15     5    16 1
    16     6    17 1
    17     6    18 1
    18     7    19 1
    19     8    20 1
    20    11    21 1
    21    11    22 1
    22    12    23 1
    23    12    24 1
    24    13    25 1
    25    13    26 1
    26    13    27 1
@<TRIPOS>SUBSTRUCTURE
     1 C4L         1 TEMP              0 ****  ****    0 ROOT
