@<TRIPOS>MOLECULE
C4M
   56    57     1     0     0
SMALL
bcc


@<TRIPOS>ATOM
      1 C1           0.0000     0.0000     0.0000 c3         1 C4M       0.216700
      2 O2           1.4300     0.0000     0.0000 os         1 C4M      -0.268900
      3 C3           1.8220     0.0000     1.3020 ca         1 C4M       0.208100
      4 C4           0.8720     0.0000     2.3140 ca         1 C4M      -0.262000
      5 C5           1.2730    -0.0000     3.6360 ca         1 C4M       0.050700
      6 C6           0.2430    -0.0000     4.7350 c3         1 C4M       0.030200
      7 C7           2.6200    -0.0010     3.9500 ca         1 C4M      -0.211500
      8 C8           3.5680     0.0000     2.9440 ca         1 C4M       0.071700
      9 C9           5.0340    -0.0000     3.2910 c3         1 C4M       0.018200
     10 C10          3.1720    -0.0060     1.6200 ca         1 C4M      -0.158300
     11 C11          4.2050    -0.0060     0.5230 c3         1 C4M       0.068200
     12 S12          3.1290    -0.0010     5.6370 sy         1 C4M       1.055200
     13 O13          4.4310    -0.5700     5.6480 o          1 C4M      -0.578300
     14 O14          2.0150    -0.4830     6.3760 o          1 C4M      -0.578300
     15 N15          3.3230     1.5790     6.0960 n7         1 C4M      -0.589100
     16 C16          2.1670     2.4770     6.1400 c3         1 C4M       0.194800
     17 C17          2.5280     3.7340     6.9320 c3         1 C4M       0.171100
     18 O18          3.5450     4.4600     6.2380 oh         1 C4M      -0.546800
     19 C19          1.2860     4.6150     7.0840 c3         1 C4M      -0.094500
     20 N20          0.2410     3.8690     7.7970 nz         1 C4M       0.044400
     21 C21          1.6470     5.8730     7.8770 c3         1 C4M       0.033900
     22 C22          0.4570     6.7970     7.9210 ca         1 C4M      -0.174300
     23 C23          0.2880     7.7530     6.9370 ca         1 C4M      -0.102500
     24 C24         -0.8060     8.5980     6.9740 ca         1 C4M      -0.073500
     25 C25         -1.7240     8.4930     8.0030 ca         1 C4M      -0.063000
     26 C26         -1.5520     7.5410     8.9890 ca         1 C4M      -0.073500
     27 C27         -0.4610     6.6930     8.9490 ca         1 C4M      -0.102500
     28 H1C1        -0.3610    -0.8930     0.4950 h1         1 C4M       0.006700
     29 H1C2        -0.3610     0.0170    -1.0210 h1         1 C4M       0.006700
     30 H1C3        -0.3610     0.8760     0.5250 h1         1 C4M       0.006700
     31 H4          -0.1820    -0.0440     2.0670 ha         1 C4M       0.146000
     32 H6C1        -0.7400     0.1560     4.3080 hc         1 C4M       0.020367
     33 H6C2         0.4630     0.7960     5.4360 hc         1 C4M       0.020367
     34 H6C3         0.2650    -0.9520     5.2510 hc         1 C4M       0.020367
     35 H9C1         5.3170    -0.9780     3.6620 hc         1 C4M       0.033367
     36 H9C2         5.2250     0.7450     4.0530 hc         1 C4M       0.033367
     37 H9C3         5.6140     0.2320     2.4060 hc         1 C4M       0.033367
     38 H111         4.8790    -0.8430     0.6620 hc         1 C4M       0.018033
     39 H112         4.7680     0.9200     0.5580 hc         1 C4M       0.018033
     40 H113         3.7130    -0.0940    -0.4370 hc         1 C4M       0.018033
     41 H15          4.2270     1.9130     6.3680 hn         1 C4M       0.355800
     42 H161         1.3370     1.9740     6.6200 h1         1 C4M       0.021200
     43 H162         1.8870     2.7540     5.1300 h1         1 C4M       0.021200
     44 H17          2.8930     3.4510     7.9120 h1         1 C4M       0.021700
     45 H18          4.3210     4.5020     6.7710 ho         1 C4M       0.418000
     46 H19          0.9220     4.8980     6.1040 hx         1 C4M       0.105700
     47 H201        -0.0730     3.1090     7.2280 hn         1 C4M       0.234800
     48 H202         0.6130     3.5120     8.6550 hn         1 C4M       0.234800
     49 H211         2.4780     6.3760     7.3980 hc         1 C4M       0.054700
     50 H212         1.9260     5.5960     8.8860 hc         1 C4M       0.054700
     51 H23          1.0080     7.8350     6.1320 ha         1 C4M       0.105000
     52 H24         -0.9400     9.3460     6.2020 ha         1 C4M       0.121500
     53 H25         -2.5810     9.1560     8.0340 ha         1 C4M       0.123000
     54 H26         -2.2720     7.4600     9.7950 ha         1 C4M       0.121500
     55 H27         -0.3260     5.9470     9.7230 ha         1 C4M       0.105000
     56 H203        -0.5110     4.4880     8.0280 hn         1 C4M       0.234800
@<TRIPOS>BOND
     1     1     2 1   
     2     1    28 1   
     3     1    29 1   
     4     1    30 1   
     5     2     3 1   
     6     3     4 ar  
     7     3    10 ar  
     8     4     5 ar  
     9     4    31 1   
    10     5     6 1   
    11     5     7 ar  
    12     6    32 1   
    13     6    33 1   
    14     6    34 1   
    15     7     8 ar  
    16     7    12 1   
    17     8     9 1   
    18     8    10 ar  
    19     9    35 1   
    20     9    36 1   
    21     9    37 1   
    22    10    11 1   
    23    11    38 1   
    24    11    39 1   
    25    11    40 1   
    26    12    13 2   
    27    12    14 2   
    28    12    15 1   
    29    15    16 1   
    30    15    41 1   
    31    16    17 1   
    32    16    42 1   
    33    16    43 1   
    34    17    18 1   
    35    17    19 1   
    36    17    44 1   
    37    18    45 1   
    38    19    20 1   
    39    19    21 1   
    40    19    46 1   
    41    20    47 1   
    42    20    48 1   
    43    20    56 1   
    44    21    22 1   
    45    21    49 1   
    46    21    50 1   
    47    22    23 ar  
    48    22    27 ar  
    49    23    24 ar  
    50    23    51 1   
    51    24    25 ar  
    52    24    52 1   
    53    25    26 ar  
    54    25    53 1   
    55    26    27 ar  
    56    26    54 1   
    57    27    55 1   
@<TRIPOS>SUBSTRUCTURE
     1 C4M         1 TEMP              0 ****  ****    0 ROOT
