@<TRIPOS>MOLECULE
C4N
   52    55     1     0     0
SMALL
bcc


@<TRIPOS>ATOM
      1 C1           0.0000     0.0000     0.0000 ca         1 C4N      -0.222600
      2 C2           1.4090     0.0000     0.0000 ca         1 C4N       0.240100
      3 C3           2.1060     0.0000     1.1890 ca         1 C4N      -0.236000
      4 O5           2.0830    -0.0000    -1.1790 oh         1 C4N      -0.466100
      5 C9           0.0080    -0.0010     2.4070 ca         1 C4N      -0.291900
      6 C10          1.4190    -0.0010     2.4000 ca         1 C4N      -0.132200
      7 C13         -0.3940    -0.0010     3.8120 cc         1 C4N       0.414900
      8 C14         -1.8080    -0.0020     4.3320 c3         1 C4N       0.038600
      9 C15         -2.2790    -1.4220     4.5050 ca         1 C4N      -0.087300
     10 C16         -2.9020    -2.0770     3.4590 ca         1 C4N      -0.111000
     11 C19         -3.3300    -3.3820     3.6170 ca         1 C4N      -0.097000
     12 C20         -2.0820    -2.0740     5.7090 ca         1 C4N      -0.087000
     13 C21         -2.1570    -1.7690    -0.4030 c3         1 C4N       0.062300
     14 C22         -2.4000    -0.9360    -2.7860 c3         1 C4N       0.116300
     15 C24         -3.3970     1.3210    -3.2080 ca         1 C4N      -0.074000
     16 C27         -4.4720     2.1910    -3.2190 ca         1 C4N      -0.104000
     17 C4          -0.6960     0.0000     1.2030 ca         1 C4N       0.029000
     18 C6          -0.7360     0.0060    -1.2770 c          1 C4N       0.630700
     19 N7          -1.7360    -0.8740    -1.4820 n          1 C4N      -0.153800
     20 O8          -0.4420     0.8060    -2.1450 o          1 C4N      -0.639100
     21 N11          1.8180    -0.0010     3.7100 na         1 C4N       0.412900
     22 N12          0.6890    -0.0010     4.5350 nd         1 C4N      -0.634100
     23 C17         -3.1320    -4.0340     4.8200 ca         1 C4N      -0.102000
     24 C18         -2.5130    -3.3770     5.8670 ca         1 C4N      -0.086300
     25 C23         -3.5720     0.0110    -2.7980 ca         1 C4N      -0.127300
     26 C25         -5.7200     1.7520    -2.8140 ca         1 C4N      -0.029600
     27 C26         -5.8930     0.4430    -2.4010 ca         1 C4N      -0.104000
     28 C28         -4.8210    -0.4290    -2.4000 ca         1 C4N      -0.074000
     29 Cl          -7.0700     2.8440    -2.8280 cl         1 C4N      -0.031400
     30 H1           3.1900    -0.0000     1.1810 ha         1 C4N       0.117000
     31 H2           2.8460     0.5490    -1.1040 ho         1 C4N       0.408000
     32 H3          -2.4520     0.5090     3.6270 hc         1 C4N       0.028700
     33 H4          -1.8420     0.5080     5.2870 hc         1 C4N       0.028700
     34 H5          -3.0570    -1.5660     2.5160 ha         1 C4N       0.103000
     35 H6          -3.8170    -3.8960     2.7970 ha         1 C4N       0.100000
     36 H7          -1.6300    -1.5490     6.5420 ha         1 C4N       0.115000
     37 H8          -1.2880    -2.1020     0.1510 h1         1 C4N       0.014033
     38 H9          -2.8280    -1.2410     0.2640 h1         1 C4N       0.014033
     39 H10         -2.6680    -2.6270    -0.8230 h1         1 C4N       0.014033
     40 H11         -1.7000    -0.6540    -3.5620 h1         1 C4N       0.035200
     41 H12         -2.7510    -1.9450    -2.9650 h1         1 C4N       0.035200
     42 H14         -4.3360     3.2160    -3.5410 ha         1 C4N       0.115500
     43 H18         -1.7790     0.0000     1.2050 ha         1 C4N       0.116000
     44 H19          2.7670    -0.0010     4.0260 hn         1 C4N       0.153700
     45 H20         -3.4690    -5.0560     4.9440 ha         1 C4N       0.106000
     46 H21         -6.8710     0.0990    -2.0860 ha         1 C4N       0.115500
     47 H22         -4.9560    -1.4530    -2.0760 ha         1 C4N       0.119000
     48 C30         -2.2980    -4.0880     7.1790 c3         1 C4N       0.063200
     49 H13         -2.4200     1.6630    -3.5250 ha         1 C4N       0.119000
     50 H15         -2.4720    -5.1490     7.0480 hc         1 C4N       0.008033
     51 H16         -2.9880    -3.6980     7.9180 hc         1 C4N       0.008033
     52 H17         -1.2810    -3.9270     7.5140 hc         1 C4N       0.008033
@<TRIPOS>BOND
     1     1     2 ar  
     2     1    17 ar  
     3     1    18 1   
     4     2     3 ar  
     5     2     4 1   
     6     3     6 ar  
     7     3    30 1   
     8     4    31 1   
     9     5     6 ar  
    10     5     7 1   
    11     5    17 ar  
    12     6    21 1   
    13     7     8 1   
    14     7    22 2   
    15     8     9 1   
    16     8    32 1   
    17     8    33 1   
    18     9    10 ar  
    19     9    12 ar  
    20    10    11 ar  
    21    10    34 1   
    22    11    23 ar  
    23    11    35 1   
    24    12    24 ar  
    25    12    36 1   
    26    13    19 1   
    27    13    37 1   
    28    13    38 1   
    29    13    39 1   
    30    14    19 1   
    31    14    25 1   
    32    14    40 1   
    33    14    41 1   
    34    15    16 ar  
    35    15    25 ar  
    36    15    49 1   
    37    16    26 ar  
    38    16    42 1   
    39    17    43 1   
    40    18    19 1   
    41    18    20 2   
    42    21    22 1   
    43    21    44 1   
    44    23    24 ar  
    45    23    45 1   
    46    24    48 1   
    47    25    28 ar  
    48    26    27 ar  
    49    26    29 1   
    50    27    28 ar  
    51    27    46 1   
    52    28    47 1   
    53    48    50 1   
    54    48    51 1   
    55    48    52 1   
@<TRIPOS>SUBSTRUCTURE
     1 C4N         1 TEMP              0 ****  ****    0 ROOT
