@<TRIPOS>MOLECULE
molecule
   52    55     1     0     0
SMALL
bcc


@<TRIPOS>ATOM
      1 C1           0.0000     0.0000     0.0000 ca         1 C4N      -0.203600
      2 C2           1.4090     0.0000     0.0000 ca         1 C4N       0.217100
      3 C3           2.1060     0.0000     1.1890 ca         1 C4N      -0.258000
      4 O5           2.0830    -0.0000    -1.1790 oh         1 C4N      -0.484100
      5 C9           0.0080    -0.0010     2.4070 ca         1 C4N      -0.278900
      6 C10          1.4190    -0.0010     2.4000 ca         1 C4N       0.028800
      7 C13         -0.3940    -0.0010     3.8120 cc         1 C4N       0.391900
      8 C14         -1.8080    -0.0020     4.3320 c3         1 C4N      -0.032400
      9 C15         -2.2790    -1.4220     4.5050 ca         1 C4N      -0.082300
     10 C16         -2.9020    -2.0770     3.4590 ca         1 C4N      -0.128000
     11 C19         -3.3300    -3.3820     3.6170 ca         1 C4N      -0.125000
     12 C20         -2.0820    -2.0740     5.7090 ca         1 C4N      -0.112000
     13 C21         -2.1570    -1.7690    -0.4030 c3         1 C4N       0.089300
     14 C22         -2.4000    -0.9360    -2.7860 c3         1 C4N       0.160300
     15 C24         -3.3970     1.3210    -3.2080 ca         1 C4N      -0.103000
     16 C27         -4.4720     2.1910    -3.2190 ca         1 C4N      -0.127500
     17 C4          -0.6960     0.0000     1.2030 ca         1 C4N      -0.004000
     18 C6          -0.7360     0.0060    -1.2770 c          1 C4N       0.693700
     19 N7          -1.7360    -0.8740    -1.4820 n          1 C4N      -0.488800
     20 O8          -0.4420     0.8060    -2.1450 o          1 C4N      -0.596100
     21 N11          1.8180    -0.0010     3.7100 na         1 C4N      -0.051100
     22 N12          0.6890    -0.0010     4.5350 nd         1 C4N      -0.500100
     23 C17         -3.1320    -4.0340     4.8200 ca         1 C4N      -0.124000
     24 C18         -2.5130    -3.3770     5.8670 ca         1 C4N      -0.079300
     25 C23         -3.5720     0.0110    -2.7980 ca         1 C4N      -0.115300
     26 C25         -5.7200     1.7520    -2.8140 ca         1 C4N       0.032400
     27 C26         -5.8930     0.4430    -2.4010 ca         1 C4N      -0.127500
     28 C28         -4.8210    -0.4290    -2.4000 ca         1 C4N      -0.103000
     29 Cl          -7.0700     2.8440    -2.8280 cl         1 C4N      -0.113400
     30 H1           3.1900    -0.0000     1.1810 ha         1 C4N       0.139000
     31 H2           2.8460     0.5490    -1.1040 ho         1 C4N       0.428000
     32 H3          -2.4520     0.5090     3.6270 hc         1 C4N       0.067200
     33 H4          -1.8420     0.5080     5.2870 hc         1 C4N       0.067200
     34 H5          -3.0570    -1.5660     2.5160 ha         1 C4N       0.123000
     35 H6          -3.8170    -3.8960     2.7970 ha         1 C4N       0.128000
     36 H7          -1.6300    -1.5490     6.5420 ha         1 C4N       0.138000
     37 H8          -1.2880    -2.1020     0.1510 h1         1 C4N       0.040700
     38 H9          -2.8280    -1.2410     0.2640 h1         1 C4N       0.040700
     39 H10         -2.6680    -2.6270    -0.8230 h1         1 C4N       0.040700
     40 H11         -1.7000    -0.6540    -3.5620 h1         1 C4N       0.066200
     41 H12         -2.7510    -1.9450    -2.9650 h1         1 C4N       0.066200
     42 H14         -4.3360     3.2160    -3.5410 ha         1 C4N       0.144000
     43 H18         -1.7790     0.0000     1.2050 ha         1 C4N       0.145000
     44 H19          2.7670    -0.0010     4.0260 hn         1 C4N       0.333700
     45 H20         -3.4690    -5.0560     4.9440 ha         1 C4N       0.131000
     46 H21         -6.8710     0.0990    -2.0860 ha         1 C4N       0.144000
     47 H22         -4.9560    -1.4530    -2.0760 ha         1 C4N       0.146000
     48 C30         -2.2980    -4.0880     7.1790 c3         1 C4N      -0.047800
     49 H13         -2.4200     1.6630    -3.5250 ha         1 C4N       0.146000
     50 H15         -2.4720    -5.1490     7.0480 hc         1 C4N       0.044700
     51 H16         -2.9880    -3.6980     7.9180 hc         1 C4N       0.044700
     52 H17         -1.2810    -3.9270     7.5140 hc         1 C4N       0.044700
@<TRIPOS>BOND
     1    13    19 1
     2    20    18 2
     3    19    18 1
     4    19    14 1
     5    18     1 1
     6    23    11 ar
     7    23    24 ar
     8    11    10 ar
     9    28    27 ar
    10    28    25 ar
    11    14    25 1
    12    27    26 ar
    13     1    17 ar
    14     1     2 ar
    15    48    24 1
    16    24    12 ar
    17    10     9 ar
    18    25    15 ar
    19     4     2 1
    20    17     5 ar
    21     2     3 ar
    22     9    12 ar
    23     9     8 1
    24    26    29 1
    25    26    16 ar
    26    15    16 ar
    27     5     6 ar
    28     5     7 1
    29     3     6 ar
    30     8     7 1
    31     6    21 1
    32     7    22 2
    33    21    22 1
    34     3    30 1
    35     4    31 1
    36     8    32 1
    37     8    33 1
    38    10    34 1
    39    11    35 1
    40    12    36 1
    41    13    37 1
    42    13    38 1
    43    13    39 1
    44    14    40 1
    45    14    41 1
    46    15    49 1
    47    16    42 1
    48    48    50 1
    49    48    51 1
    50    48    52 1
    51    17    43 1
    52    21    44 1
    53    23    45 1
    54    27    46 1
    55    28    47 1
@<TRIPOS>SUBSTRUCTURE
     1 C4N         1 TEMP              0 ****  ****    0 ROOT
