@<TRIPOS>MOLECULE
molecule
   61    63     1     0     0
SMALL
bcc


@<TRIPOS>ATOM
      1 N43          0.0000     0.0000     0.0000 ns         1 C4P      -0.587900
      2 C40         -0.6740    -0.5820    -1.0100 c          1 C4P       0.795100
      3 O41         -0.0690    -1.1720    -1.8840 o          1 C4P      -0.657100
      4 N1          -2.0200    -0.5110    -1.0520 n          1 C4P      -0.512800
      5 C2          -2.7770    -1.0300    -2.2040 c3         1 C4P       0.080500
      6 C3          -3.9360    -1.8800    -1.6690 c3         1 C4P       0.107900
      7 O4          -4.7270    -1.0990    -0.7740 os         1 C4P      -0.402600
      8 C5          -3.9460    -0.8540     0.3950 c3         1 C4P       0.107900
      9 C6          -2.7890     0.0840     0.0540 c3         1 C4P       0.080500
     10 C44          1.4650     0.0000     0.0000 c3         1 C4P       0.067700
     11 C45          1.9680     0.0000     1.4200 c          1 C4P       0.662100
     12 O46          1.1800    -0.0010     2.3430 o          1 C4P      -0.618100
     13 N54          3.2920    -0.0000     1.6660 ns         1 C4P      -0.561900
     14 C55          3.7810    -0.0010     3.0470 c3         1 C4P       0.014700
     15 C56          3.9490     1.4200     3.5210 c          1 C4P       0.555900
     16 O57          3.6870     2.3380     2.7820 o          1 C4P      -0.500100
     17 C58          5.1280    -0.7230     3.1110 c3         1 C4P      -0.011300
     18 S1           4.9260    -2.4330     2.5410 ss         1 C4P      -0.307200
     19 C1           6.6300    -3.0280     2.7200 c3         1 C4P       0.059000
     20 C62          6.7060    -4.4700     2.2910 ca         1 C4P      -0.082300
     21 C67          6.9790    -4.7860     0.9740 ca         1 C4P      -0.110000
     22 C66          7.0490    -6.1100     0.5800 ca         1 C4P      -0.127000
     23 C65          6.8450    -7.1160     1.5050 ca         1 C4P      -0.119000
     24 C64          6.5740    -6.8010     2.8210 ca         1 C4P      -0.127000
     25 C63          6.5090    -5.4770     3.2160 ca         1 C4P      -0.110000
     26 C47          1.9740     1.2490    -0.7210 c3         1 C4P      -0.046100
     27 C48          1.4720     1.2500    -2.1410 ca         1 C4P      -0.073300
     28 C49          0.2640     1.8480    -2.4470 ca         1 C4P      -0.112500
     29 C51         -0.1970     1.8490    -3.7500 ca         1 C4P      -0.122000
     30 C53          0.5490     1.2500    -4.7480 ca         1 C4P      -0.125000
     31 C52          1.7580     0.6530    -4.4430 ca         1 C4P      -0.122000
     32 C50          2.2210     0.6560    -3.1400 ca         1 C4P      -0.112500
     33 H43         -0.5000     0.4160     0.7610 hn         1 C4P       0.330500
     34 H21         -3.1690    -0.2040    -2.7850 h1         1 C4P       0.062200
     35 H22         -2.1300    -1.6430    -2.8200 h1         1 C4P       0.062200
     36 H31         -4.5510    -2.2100    -2.4970 h1         1 C4P       0.055700
     37 H32         -3.5380    -2.7390    -1.1430 h1         1 C4P       0.055700
     38 H51A        -4.5700    -0.3940     1.1520 h1         1 C4P       0.055700
     39 H52A        -3.5510    -1.7910     0.7660 h1         1 C4P       0.055700
     40 H61         -2.1490     0.2010     0.9200 h1         1 C4P       0.062200
     41 H62         -3.1800     1.0470    -0.2520 h1         1 C4P       0.062200
     42 H44          1.8260    -0.8840    -0.5110 h1         1 C4P       0.105700
     43 H54          3.9420    -0.0340     0.9050 hn         1 C4P       0.328500
     44 H55          3.0670    -0.5110     3.6830 h1         1 C4P       0.115700
     45 H56          4.2750     1.6180     4.5350 h4         1 C4P       0.004200
     46 H581         5.4900    -0.7230     4.1320 h1         1 C4P       0.066200
     47 H582         5.8410    -0.2120     2.4750 h1         1 C4P       0.066200
     48 H11          6.9350    -2.9420     3.7560 h1         1 C4P       0.063200
     49 H12          7.2880    -2.4310     2.1000 h1         1 C4P       0.063200
     50 H67          7.1390    -3.9960     0.2490 ha         1 C4P       0.133500
     51 H66          7.2630    -6.3580    -0.4530 ha         1 C4P       0.133000
     52 H65          6.8980    -8.1530     1.1970 ha         1 C4P       0.132000
     53 H64          6.4160    -7.5900     3.5460 ha         1 C4P       0.133000
     54 H63          6.2950    -5.2300     4.2480 ha         1 C4P       0.133500
     55 H471         1.6140     2.1330    -0.2090 hc         1 C4P       0.057200
     56 H472         3.0580     1.2490    -0.7210 hc         1 C4P       0.057200
     57 H49         -0.3210     2.3180    -1.6660 ha         1 C4P       0.124000
     58 H51         -1.1440     2.3180    -3.9890 ha         1 C4P       0.125500
     59 H53          0.1870     1.2490    -5.7690 ha         1 C4P       0.125000
     60 H52          2.3440     0.1860    -5.2250 ha         1 C4P       0.125500
     61 H50          3.1680     0.1870    -2.9010 ha         1 C4P       0.124000
@<TRIPOS>BOND
     1     1     2 1
     2     1    10 1
     3     1    33 1
     4     2     3 2
     5     2     4 1
     6     4     5 1
     7     4     9 1
     8     5     6 1
     9     5    34 1
    10     5    35 1
    11     6     7 1
    12     6    36 1
    13     6    37 1
    14     7     8 1
    15     8     9 1
    16     8    38 1
    17     8    39 1
    18     9    40 1
    19     9    41 1
    20    10    11 1
    21    10    26 1
    22    10    42 1
    23    11    12 2
    24    11    13 1
    25    13    14 1
    26    13    43 1
    27    14    15 1
    28    14    17 1
    29    14    44 1
    30    15    16 2
    31    15    45 1
    32    17    18 1
    33    17    46 1
    34    17    47 1
    35    18    19 1
    36    19    20 1
    37    19    48 1
    38    19    49 1
    39    20    21 ar
    40    20    25 ar
    41    21    22 ar
    42    21    50 1
    43    22    23 ar
    44    22    51 1
    45    23    24 ar
    46    23    52 1
    47    24    25 ar
    48    24    53 1
    49    25    54 1
    50    26    27 1
    51    26    55 1
    52    26    56 1
    53    27    28 ar
    54    27    32 ar
    55    28    29 ar
    56    28    57 1
    57    29    30 ar
    58    29    58 1
    59    30    31 ar
    60    30    59 1
    61    31    32 ar
    62    31    60 1
    63    32    61 1
@<TRIPOS>SUBSTRUCTURE
     1 C4P         1 TEMP              0 ****  ****    0 ROOT
