@<TRIPOS>MOLECULE
C4Q
   50    52     1     0     0
SMALL
bcc


@<TRIPOS>ATOM
      1 C2           0.0000     0.0000     0.0000 ca         1 C4Q       0.409200
      2 C3           1.3930     0.0000     0.0000 ca         1 C4Q      -0.227300
      3 C4           2.0740     0.0000     1.1840 ca         1 C4Q      -0.041300
      4 C5           1.9620    -0.0000     3.6320 ca         1 C4Q      -0.085000
      5 N5          -0.6900    -0.0010     1.1150 nb         1 C4Q      -0.570000
      6 C6           1.2060    -0.0000     4.7650 ca         1 C4Q      -0.102000
      7 C7          -0.1860    -0.0010     4.6970 ca         1 C4Q      -0.094000
      8 C8          -0.8300    -0.0020     3.4980 ca         1 C4Q      -0.141300
      9 C9          -0.0850    -0.0010     2.3060 ca         1 C4Q       0.371600
     10 CM           3.5820     0.0010     1.2090 c3         1 C4Q       0.201100
     11 C1'          5.4780     1.2990     1.9730 c3         1 C4Q       0.134300
     12 N1'          4.0650     1.3390     1.5760 n3         1 C4Q      -0.534600
     13 C10          1.3310    -0.0000     2.3780 ca         1 C4Q      -0.130300
     14 C2'          5.5920     1.5400     3.4790 c3         1 C4Q       0.125800
     15 N2'          6.4590     2.7010     3.7240 n7         1 C4Q      -0.577200
     16 C3'          5.8080     3.6630     4.6230 c3         1 C4Q       0.116800
     17 N3'          4.4750     5.5730     3.8650 n7         1 C4Q      -0.608200
     18 C4'          5.8450     5.0560     3.9920 c3         1 C4Q       0.133800
     19 N4'          3.1750     4.6320     0.7480 n7         1 C4Q      -0.577200
     20 C5'          4.2030     6.0120     2.4900 c3         1 C4Q       0.133800
     21 C6'          2.9090     5.3640     1.9940 c3         1 C4Q       0.116800
     22 C7'          2.7080     3.2430     0.8450 c3         1 C4Q       0.125800
     23 C8'          3.8520     2.2940     0.4810 c3         1 C4Q       0.134300
     24 H2          -0.5270     0.0000    -0.9460 h4         1 C4Q      -0.022900
     25 H3           1.9350     0.0010    -0.9380 ha         1 C4Q       0.115000
     26 H5           3.0430     0.0000     3.6990 ha         1 C4Q       0.119000
     27 H6           1.6940     0.0010     5.7330 ha         1 C4Q       0.101000
     28 H7          -0.7650    -0.0010     5.6130 ha         1 C4Q       0.103000
     29 H8          -1.9120    -0.0030     3.4620 ha         1 C4Q       0.117000
     30 H1'A         6.0240     2.0690     1.4410 h1         1 C4Q       0.025450
     31 H2'          4.6080     1.7310     3.8900 h1         1 C4Q       0.019450
     32 H2'A         6.0180     0.6650     3.9540 h1         1 C4Q       0.019450
     33 H3'          4.7780     3.3670     4.7850 h1         1 C4Q       0.015950
     34 H4'          6.4250     5.7220     4.6200 h1         1 C4Q       0.026450
     35 H5'          5.0240     5.7160     1.8480 h1         1 C4Q       0.026450
     36 H5'A         4.0990     7.0900     2.4690 h1         1 C4Q       0.026450
     37 H6'          2.5380     4.6770     2.7440 h1         1 C4Q       0.015950
     38 H6'A         2.1680     6.1330     1.8100 h1         1 C4Q       0.015950
     39 H7'          2.3800     3.0420     1.8580 h1         1 C4Q       0.019450
     40 H7'A         1.8810     3.0910     0.1610 h1         1 C4Q       0.019450
     41 H8'          4.7580     2.8660     0.3200 h1         1 C4Q       0.025450
     42 H8'A         3.6000     1.7550    -0.4240 h1         1 C4Q       0.025450
     43 H3'A         6.3310     3.6820     5.5720 h1         1 C4Q       0.015950
     44 H4'A         6.3010     4.9970     3.0110 h1         1 C4Q       0.026450
     45 HM           3.9600    -0.2640     0.2290 h1         1 C4Q       0.018700
     46 HMA          3.9310    -0.7210     1.9380 h1         1 C4Q       0.018700
     47 HN2'         7.3200     2.3940     4.1310 hn         1 C4Q       0.249800
     48 HN3'         3.8230     4.8580     4.1230 hn         1 C4Q       0.264800
     49 HN4'         2.7110     5.0880    -0.0130 hn         1 C4Q       0.249800
     50 H1'          5.8940     0.3290     1.7300 h1         1 C4Q       0.025450
@<TRIPOS>BOND
     1     1     2 ar  
     2     1     5 ar  
     3     1    24 1   
     4     2     3 ar  
     5     2    25 1   
     6     3    10 1   
     7     3    13 ar  
     8     4     6 ar  
     9     4    13 ar  
    10     4    26 1   
    11     5     9 ar  
    12     6     7 ar  
    13     6    27 1   
    14     7     8 ar  
    15     7    28 1   
    16     8     9 ar  
    17     8    29 1   
    18     9    13 ar  
    19    10    12 1   
    20    10    45 1   
    21    10    46 1   
    22    11    12 1   
    23    11    14 1   
    24    11    30 1   
    25    11    50 1   
    26    12    23 1   
    27    14    15 1   
    28    14    31 1   
    29    14    32 1   
    30    15    16 1   
    31    15    47 1   
    32    16    18 1   
    33    16    33 1   
    34    16    43 1   
    35    17    18 1   
    36    17    20 1   
    37    17    48 1   
    38    18    34 1   
    39    18    44 1   
    40    19    21 1   
    41    19    22 1   
    42    19    49 1   
    43    20    21 1   
    44    20    35 1   
    45    20    36 1   
    46    21    37 1   
    47    21    38 1   
    48    22    23 1   
    49    22    39 1   
    50    22    40 1   
    51    23    41 1   
    52    23    42 1   
@<TRIPOS>SUBSTRUCTURE
     1 C4Q         1 TEMP              0 ****  ****    0 ROOT
