@<TRIPOS>MOLECULE
C4T
   49    52     1     0     0
SMALL
bcc


@<TRIPOS>ATOM
      1 C1           0.0000     0.0000     0.0000 ca         1 C4T      -0.220600
      2 C2           1.4090     0.0000     0.0000 ca         1 C4T       0.235100
      3 C3           2.1060     0.0000     1.1880 ca         1 C4T      -0.221000
      4 O5           2.0830    -0.0010    -1.1790 oh         1 C4T      -0.476100
      5 C9           0.0070    -0.0000     2.4070 ca         1 C4T      -0.287900
      6 C10          1.4190    -0.0000     2.4000 ca         1 C4T      -0.137200
      7 C13         -0.3950     0.0010     3.8120 cc         1 C4T       0.412900
      8 C14         -1.8090     0.0010     4.3310 c3         1 C4T       0.038600
      9 C15         -2.2800    -1.4200     4.5050 ca         1 C4T      -0.092300
     10 C16         -2.9030    -2.0750     3.4590 ca         1 C4T      -0.095000
     11 C19         -3.3310    -3.3800     3.6170 ca         1 C4T      -0.099500
     12 C20         -2.0830    -2.0720     5.7090 ca         1 C4T      -0.095000
     13 C21         -2.1570    -1.7690    -0.4020 c3         1 C4T       0.063300
     14 C22         -2.4000    -0.9370    -2.7870 c3         1 C4T       0.116300
     15 C24         -3.3970     1.3200    -3.2100 ca         1 C4T      -0.074500
     16 C27         -4.4710     2.1900    -3.2210 ca         1 C4T      -0.104000
     17 C4          -0.6960     0.0010     1.2030 ca         1 C4T       0.024000
     18 C6          -0.7370     0.0060    -1.2780 c          1 C4T       0.631700
     19 N7          -1.7360    -0.8740    -1.4830 n          1 C4T      -0.152800
     20 O8          -0.4420     0.8050    -2.1460 o          1 C4T      -0.642100
     21 N11          1.8180     0.0000     3.7100 na         1 C4T       0.413900
     22 N12          0.6880     0.0010     4.5340 nd         1 C4T      -0.633100
     23 C17         -3.1340    -4.0310     4.8210 ca         1 C4T      -0.100000
     24 C18         -2.5150    -3.3750     5.8680 ca         1 C4T      -0.099500
     25 C23         -3.5720     0.0110    -2.7990 ca         1 C4T      -0.127300
     26 C25         -5.7210     1.7500    -2.8220 ca         1 C4T      -0.029600
     27 C26         -5.8960     0.4410    -2.4120 ca         1 C4T      -0.104000
     28 C28         -4.8200    -0.4280    -2.4010 ca         1 C4T      -0.074500
     29 Cl          -7.0700     2.8430    -2.8360 cl         1 C4T      -0.031400
     30 H1           3.1890    -0.0000     1.1810 ha         1 C4T       0.117000
     31 H2           2.7300     0.6850    -1.1710 ho         1 C4T       0.411000
     32 H3          -1.8440     0.5120     5.2850 hc         1 C4T       0.029200
     33 H4          -2.4530     0.5110     3.6250 hc         1 C4T       0.029200
     34 H5          -3.0580    -1.5650     2.5160 ha         1 C4T       0.107500
     35 H6          -3.8180    -3.8940     2.7970 ha         1 C4T       0.102000
     36 H7          -1.5980    -1.5580     6.5300 ha         1 C4T       0.107500
     37 H8          -1.2860    -2.1120     0.1430 h1         1 C4T       0.014367
     38 H9          -2.6790    -2.6210    -0.8220 h1         1 C4T       0.014367
     39 H10         -2.8180    -1.2360     0.2710 h1         1 C4T       0.014367
     40 H11         -1.6990    -0.6550    -3.5630 h1         1 C4T       0.035700
     41 H12         -2.7510    -1.9470    -2.9660 h1         1 C4T       0.035700
     42 H14         -4.3340     3.2150    -3.5430 ha         1 C4T       0.115500
     43 H15         -1.7800     0.0010     1.2050 ha         1 C4T       0.116000
     44 H16          2.7670    -0.0000     4.0270 hn         1 C4T       0.154700
     45 H17         -3.4700    -5.0530     4.9460 ha         1 C4T       0.102000
     46 H18         -2.3600    -3.8850     6.8120 ha         1 C4T       0.102000
     47 H19         -6.8740     0.0970    -2.0990 ha         1 C4T       0.115500
     48 H20         -4.9570    -1.4540    -2.0800 ha         1 C4T       0.119000
     49 H13         -2.4190     1.6630    -3.5220 ha         1 C4T       0.119000
@<TRIPOS>BOND
     1     1     2 ar  
     2     1    17 ar  
     3     1    18 1   
     4     2     3 ar  
     5     2     4 1   
     6     3     6 ar  
     7     3    30 1   
     8     4    31 1   
     9     5     6 ar  
    10     5     7 1   
    11     5    17 ar  
    12     6    21 1   
    13     7     8 1   
    14     7    22 2   
    15     8     9 1   
    16     8    32 1   
    17     8    33 1   
    18     9    10 ar  
    19     9    12 ar  
    20    10    11 ar  
    21    10    34 1   
    22    11    23 ar  
    23    11    35 1   
    24    12    24 ar  
    25    12    36 1   
    26    13    19 1   
    27    13    37 1   
    28    13    38 1   
    29    13    39 1   
    30    14    19 1   
    31    14    25 1   
    32    14    40 1   
    33    14    41 1   
    34    15    16 ar  
    35    15    25 ar  
    36    15    49 1   
    37    16    26 ar  
    38    16    42 1   
    39    17    43 1   
    40    18    19 1   
    41    18    20 2   
    42    21    22 1   
    43    21    44 1   
    44    23    24 ar  
    45    23    45 1   
    46    24    46 1   
    47    25    28 ar  
    48    26    27 ar  
    49    26    29 1   
    50    27    28 ar  
    51    27    47 1   
    52    28    48 1   
@<TRIPOS>SUBSTRUCTURE
     1 C4T         1 TEMP              0 ****  ****    0 ROOT
