@<TRIPOS>MOLECULE
C4V
   66    68     1     0     0
SMALL
bcc


@<TRIPOS>ATOM
      1 C13          0.0000     0.0000     0.0000 c3         1 C4V       0.005150
      2 C18          4.6570    -1.7980     7.5830 cx         1 C4V      -0.148700
      3 C17          5.4970     0.5810    -0.6820 c3         1 C4V       0.005150
      4 C16          5.8870     2.8340     0.3280 c3         1 C4V       0.005150
      5 C15          5.3960     1.4100     0.6000 c3         1 C4V      -0.061200
      6 C19          3.1910    -1.7950     7.2340 c          1 C4V       1.002600
      7 C22          5.3640    -0.4440     7.6740 cx         1 C4V      -0.104400
      8 C23          6.4410    -2.7490     1.6170 c          1 C4V       0.545100
      9 C11          3.9390     1.4540     1.0650 c3         1 C4V       0.137800
     10 C12          1.5300     0.0000     0.0000 c3         1 C4V      -0.061200
     11 C27          9.0450    -3.8710     1.2010 ca         1 C4V      -0.120500
     12 C1           5.0740    -0.9880     5.1510 ca         1 C4V       0.034700
     13 C2           4.1920     0.0730     5.0570 ca         1 C4V      -0.010000
     14 C3           3.6710     0.4360     3.8290 ca         1 C4V      -0.132000
     15 C4           4.0330    -0.2630     2.6880 ca         1 C4V      -0.061400
     16 C5           4.9220    -1.3320     2.7830 ca         1 C4V      -0.084400
     17 C6           5.4410    -1.6900     4.0180 ca         1 C4V      -0.128000
     18 C7           5.6440    -1.3750     6.4920 cx         1 C4V      -0.075400
     19 N8           5.2930    -2.0440     1.6330 ns         1 C4V      -0.018100
     20 N9           3.5050     0.1030     1.4450 nh         1 C4V      -0.399000
     21 C10          2.0400     0.0000     1.4430 c3         1 C4V       0.137800
     22 C14          2.0400    -1.2490    -0.7220 c3         1 C4V       0.005150
     23 O20          2.2820    -2.1570     8.1530 o          1 C4V      -0.887800
     24 O21          2.8330    -1.4670     6.1270 o          1 C4V      -0.887800
     25 O24          7.2030    -2.6910     2.5620 o          1 C4V      -0.691100
     26 N25          6.7440    -3.5190     0.5530 ns         1 C4V      -0.072100
     27 C26          7.8900    -4.3230     0.5750 ca         1 C4V      -0.061400
     28 C28         10.1750    -4.6640     1.2150 ca         1 C4V      -0.088000
     29 C29         10.1580    -5.9070     0.6080 ca         1 C4V      -0.120300
     30 C30          9.0100    -6.3590    -0.0160 ca         1 C4V      -0.088000
     31 C31          7.8750    -5.5730    -0.0300 ca         1 C4V      -0.120500
     32 C32         11.3940    -6.7690     0.6250 c3         1 C4V       0.070200
     33 H44         -0.3610    -0.8940     0.4940 hc         1 C4V       0.000033
     34 H43         -0.3610     0.0190    -1.0210 hc         1 C4V       0.000033
     35 H45         -0.3610     0.8750     0.5270 hc         1 C4V       0.000033
     36 H56          5.0310    -2.5520     8.2650 hc         1 C4V       0.039700
     37 H55          4.9710     1.0880    -1.4820 hc         1 C4V       0.000033
     38 H53          6.5390     0.4620    -0.9530 hc         1 C4V       0.000033
     39 H54          5.0530    -0.3930    -0.5170 hc         1 C4V       0.000033
     40 H50          5.2630     3.2930    -0.4290 hc         1 C4V       0.000033
     41 H52          6.9120     2.8020    -0.0200 hc         1 C4V       0.000033
     42 H51          5.8340     3.4150     1.2410 hc         1 C4V       0.000033
     43 H49          6.0080     0.9580     1.3710 hc         1 C4V       0.037200
     44 H58          6.1530    -0.3770     8.4130 hc         1 C4V       0.037700
     45 H59          4.7490     0.4200     7.4530 hc         1 C4V       0.037700
     46 H40          3.3140     1.8220     0.2610 h1         1 C4V       0.021450
     47 H41          3.8530     2.1140     1.9200 h1         1 C4V       0.021450
     48 H42          1.8910     0.8850    -0.5100 hc         1 C4V       0.037200
     49 H61          9.0590    -2.8980     1.6770 ha         1 C4V       0.127000
     50 H33          3.9080     0.6200     5.9480 ha         1 C4V       0.120000
     51 H34          2.9800     1.2680     3.7590 ha         1 C4V       0.096000
     52 H35          6.1320    -2.5200     4.0960 ha         1 C4V       0.156000
     53 H36          6.6020    -1.8780     6.5280 hc         1 C4V       0.041700
     54 H37          4.6800    -2.0700     0.8420 hn         1 C4V       0.167500
     55 H39          1.7420    -0.9200     1.9310 h1         1 C4V       0.021450
     56 H38          1.6180     0.8440     1.9750 h1         1 C4V       0.021450
     57 H48          1.3500    -1.5150    -1.5130 hc         1 C4V       0.000033
     58 H47          2.1150    -2.0680    -0.0170 hc         1 C4V       0.000033
     59 H46          3.0160    -1.0470    -1.1460 hc         1 C4V       0.000033
     60 H60          6.1660    -3.4940    -0.2630 hn         1 C4V       0.158500
     61 H62         11.0760    -4.3130     1.7030 ha         1 C4V       0.100000
     62 H63          9.0000    -7.3330    -0.4900 ha         1 C4V       0.100000
     63 H64          6.9750    -5.9280    -0.5190 ha         1 C4V       0.127000
     64 H67         12.0540    -6.4710    -0.1800 hc         1 C4V       0.001700
     65 H66         11.9040    -6.6490     1.5730 hc         1 C4V       0.001700
     66 H65         11.1120    -7.8070     0.4960 hc         1 C4V       0.001700
@<TRIPOS>BOND
     1     1    10 1   
     2     1    33 1   
     3     1    34 1   
     4     1    35 1   
     5     2     6 1   
     6     2     7 1   
     7     2    18 1   
     8     2    36 1   
     9     3     5 1   
    10     3    37 1   
    11     3    38 1   
    12     3    39 1   
    13     4     5 1   
    14     4    40 1   
    15     4    41 1   
    16     4    42 1   
    17     5     9 1   
    18     5    43 1   
    19     6    23 1   
    20     6    24 1   
    21     7    18 1   
    22     7    44 1   
    23     7    45 1   
    24     8    19 1   
    25     8    25 2   
    26     8    26 1   
    27     9    20 1   
    28     9    46 1   
    29     9    47 1   
    30    10    21 1   
    31    10    22 1   
    32    10    48 1   
    33    11    27 ar  
    34    11    28 ar  
    35    11    49 1   
    36    12    13 ar  
    37    12    17 ar  
    38    12    18 1   
    39    13    14 ar  
    40    13    50 1   
    41    14    15 ar  
    42    14    51 1   
    43    15    16 ar  
    44    15    20 1   
    45    16    17 ar  
    46    16    19 1   
    47    17    52 1   
    48    18    53 1   
    49    19    54 1   
    50    20    21 1   
    51    21    55 1   
    52    21    56 1   
    53    22    57 1   
    54    22    58 1   
    55    22    59 1   
    56    26    27 1   
    57    26    60 1   
    58    27    31 ar  
    59    28    29 ar  
    60    28    61 1   
    61    29    30 ar  
    62    29    32 1   
    63    30    31 ar  
    64    30    62 1   
    65    31    63 1   
    66    32    64 1   
    67    32    65 1   
    68    32    66 1   
@<TRIPOS>SUBSTRUCTURE
     1 C4V         1 TEMP              0 ****  ****    0 ROOT
