@<TRIPOS>MOLECULE
molecule
   50    52     1     0     0
SMALL
bcc


@<TRIPOS>ATOM
      1 N1           0.0000     0.0000     0.0000 ns         1 C4Y      -0.600900
      2 C2           1.3480     0.0000     0.0000 c          1 C4Y       0.783100
      3 C3          -0.7320     0.0000     1.2680 c3         1 C4Y       0.181300
      4 C4          -2.2140     0.0070     0.9930 ca         1 C4Y      -0.128300
      5 C5          -2.8860     1.2090     0.8640 ca         1 C4Y      -0.107500
      6 C6          -4.2440     1.2190     0.6110 ca         1 C4Y      -0.148000
      7 C7          -4.9350     0.0190     0.4870 ca         1 C4Y       0.172600
      8 C8          -4.2560    -1.1850     0.6180 ca         1 C4Y      -0.148000
      9 C9          -2.8970    -1.1880     0.8640 ca         1 C4Y      -0.107500
     10 N16         -6.3080     0.0250     0.2330 nv         1 C4Y      -0.992200
     11 O17          1.9550     0.0000     1.0530 o          1 C4Y      -0.670100
     12 N18          2.0210     0.0000    -1.1680 ns         1 C4Y      -0.597900
     13 C19          3.4860    -0.0000    -1.1680 c3         1 C4Y       0.063000
     14 C20          3.9890    -0.0010    -2.5890 c          1 C4Y       0.668100
     15 O23          3.2010    -0.0010    -3.5090 o          1 C4Y      -0.603100
     16 N25          5.3140    -0.0000    -2.8340 n          1 C4Y      -0.492800
     17 C26          5.9380     0.0050    -4.1650 c3         1 C4Y       0.163000
     18 C27          7.4660    -0.0240    -3.9550 c3         1 C4Y      -0.089400
     19 C28          7.6100    -0.6150    -2.5280 c3         1 C4Y      -0.097400
     20 C29          6.3770    -0.0000    -1.8140 c3         1 C4Y       0.089000
     21 C42          5.5460     1.2550    -4.9100 ca         1 C4Y      -0.090300
     22 C43          5.4710     2.4630    -4.2410 ca         1 C4Y      -0.111500
     23 C44          5.1170     3.6110    -4.9250 ca         1 C4Y      -0.126500
     24 C45          4.8390     3.5520    -6.2780 ca         1 C4Y      -0.126000
     25 C46          4.9160     2.3430    -6.9470 ca         1 C4Y      -0.126500
     26 C47          5.2680     1.1960    -6.2630 ca         1 C4Y      -0.111500
     27 H1          -0.5000    -0.0040    -0.8670 hn         1 C4Y       0.314500
     28 H2          -0.4660     0.8820     1.8380 h1         1 C4Y       0.057200
     29 H3          -0.4740    -0.8870     1.8340 h1         1 C4Y       0.057200
     30 H4          -2.3470     2.1430     0.9610 ha         1 C4Y       0.135000
     31 H5          -4.7700     2.1600     0.5100 ha         1 C4Y       0.137000
     32 H6          -4.7910    -2.1220     0.5200 ha         1 C4Y       0.137000
     33 H7          -2.3670    -2.1280     0.9660 ha         1 C4Y       0.135000
     34 H8          -6.9580     0.0300     0.9940 hn         1 C4Y       0.428800
     35 H9          -6.6420     0.0250    -0.7110 hn         1 C4Y       0.428800
     36 H10          1.5210    -0.0350    -2.0340 hn         1 C4Y       0.333500
     37 H11          3.8470    -0.8850    -0.6570 h1         1 C4Y       0.069200
     38 H12          3.8480     0.8840    -0.6570 h1         1 C4Y       0.069200
     39 H13          5.6280    -0.8730    -4.7190 h1         1 C4Y       0.069700
     40 H14          7.9400    -0.6700    -4.6850 hc         1 C4Y       0.061200
     41 H15          7.8760     0.9780    -3.9960 hc         1 C4Y       0.061200
     42 H16          7.5450    -1.6960    -2.5490 hc         1 C4Y       0.058700
     43 H17          8.5310    -0.2830    -2.0630 hc         1 C4Y       0.058700
     44 H18          6.5930     1.0130    -1.4960 h1         1 C4Y       0.050200
     45 H19          6.0880    -0.6130    -0.9690 h1         1 C4Y       0.050200
     46 H20          5.6880     2.5100    -3.1810 ha         1 C4Y       0.128500
     47 H21          5.0570     4.5570    -4.4010 ha         1 C4Y       0.129000
     48 H22          4.5620     4.4520    -6.8140 ha         1 C4Y       0.128000
     49 H23          4.6980     2.2960    -8.0070 ha         1 C4Y       0.129000
     50 H24          5.3290     0.2500    -6.7870 ha         1 C4Y       0.128500
@<TRIPOS>BOND
     1    23    24 ar
     2    23    22 ar
     3    24    25 ar
     4    22    21 ar
     5    25    26 ar
     6    21    26 ar
     7    21    17 1
     8    17    18 1
     9    17    16 1
    10    18    19 1
    11    13    12 1
    12    13    14 1
    13    19    20 1
    14    16    14 1
    15    16    20 1
    16    11     2 2
    17    12     2 1
    18     2     1 1
    19    14    15 2
    20     1     3 1
    21     3     4 1
    22     4     9 ar
    23     4     5 ar
    24     9     8 ar
    25     5     6 ar
    26     8     7 ar
    27     6     7 ar
    28     7    10 1
    29     1    27 1
    30     3    28 1
    31     3    29 1
    32     5    30 1
    33     6    31 1
    34     8    32 1
    35     9    33 1
    36    10    34 1
    37    10    35 1
    38    12    36 1
    39    13    37 1
    40    13    38 1
    41    17    39 1
    42    18    40 1
    43    18    41 1
    44    19    42 1
    45    19    43 1
    46    20    44 1
    47    20    45 1
    48    22    46 1
    49    23    47 1
    50    24    48 1
    51    25    49 1
    52    26    50 1
@<TRIPOS>SUBSTRUCTURE
     1 C4Y         1 TEMP              0 ****  ****    0 ROOT
