@<TRIPOS>MOLECULE
molecule
   44    45     1     0     0
SMALL
bcc


@<TRIPOS>ATOM
      1 N1           0.0000     0.0000     0.0000 n2         1 C50      -0.558900
      2 C2           1.3070     0.0000     0.0000 ce         1 C50       0.715200
      3 N3           2.0190     0.0000     1.1400 ne         1 C50      -0.810000
      4 C4           1.4420    -0.2540     2.3010 c2         1 C50       0.783100
      5 N5           0.1000    -0.5460     2.3160 nh         1 C50      -0.599100
      6 C6          -0.7410     0.0470     1.2660 c3         1 C50       0.462400
      7 N7           1.9760     0.0000    -1.2070 nz         1 C50      -0.725600
      8 N8           2.1650    -0.2280     3.4600 nz         1 C50      -0.753600
      9 O9          -0.4550    -1.3910     3.3090 os         1 C50      -0.106100
     10 C10         -0.8990    -0.7000     4.4780 c3         1 C50       0.081400
     11 C11         -1.4760    -1.7040     5.4770 c3         1 C50      -0.081400
     12 C12         -1.9520    -0.9640     6.7280 c3         1 C50       0.153400
     13 O13         -2.4910    -1.9030     7.6610 os         1 C50      -0.308900
     14 C14         -2.9620    -1.4060     8.8360 ca         1 C50       0.131100
     15 C15         -3.4990    -2.2620     9.7870 ca         1 C50       0.006400
     16 C16         -3.9780    -1.7520    10.9810 ca         1 C50       0.068400
     17 C17         -3.9200    -0.3910    11.2250 ca         1 C50      -0.129000
     18 C18         -3.3850     0.4620    10.2780 ca         1 C50      -0.076000
     19 C19         -2.9010    -0.0430     9.0870 ca         1 C50      -0.220000
     20 Cl20        -3.5710    -3.9690     9.4800 cl         1 C50      -0.056400
     21 Cl21        -4.6500    -2.8200    12.1730 cl         1 C50      -0.042400
     22 C22         -2.0400    -0.7490     1.1330 c3         1 C50      -0.105100
     23 C23         -1.0610     1.5000     1.6210 c3         1 C50      -0.105100
     24 HN7          1.9760     0.9260    -1.5880 hn         1 C50       0.494133
     25 HN7A         2.9200    -0.3020    -1.0650 hn         1 C50       0.494133
     26 HN8          2.0740    -1.1070     3.9300 hn         1 C50       0.500467
     27 HN8A         1.8220     0.5040     4.0500 hn         1 C50       0.500467
     28 H10         -1.6640     0.0170     4.2050 h1         1 C50       0.039200
     29 H10A        -0.0630    -0.1810     4.9300 h1         1 C50       0.039200
     30 H11         -0.7110    -2.4210     5.7500 hc         1 C50       0.089700
     31 H11A        -2.3120    -2.2240     5.0240 hc         1 C50       0.089700
     32 H12         -1.1160    -0.4450     7.1810 h1         1 C50       0.039200
     33 H12A        -2.7170    -0.2470     6.4540 h1         1 C50       0.039200
     34 H17         -4.2970     0.0070    12.1600 ha         1 C50       0.167000
     35 H18         -3.3390     1.5260    10.4730 ha         1 C50       0.149000
     36 H19         -2.4820     0.6260     8.3450 ha         1 C50       0.123000
     37 H22         -2.6910    -0.5220     1.9680 hc         1 C50       0.085867
     38 H22A        -2.5350    -0.4820     0.2070 hc         1 C50       0.085867
     39 H22B        -1.8150    -1.8090     1.1280 hc         1 C50       0.085867
     40 H23         -0.1820     1.9700     2.0470 hc         1 C50       0.085867
     41 H23A        -1.3570     2.0340     0.7260 hc         1 C50       0.085867
     42 H23B        -1.8690     1.5270     2.3420 hc         1 C50       0.085867
     43 H73          1.5240    -0.6300    -1.8390 hn         1 C50       0.494133
     44 H83          3.1340    -0.0970     3.2460 hn         1 C50       0.500467
@<TRIPOS>BOND
     1     1     2 2
     2     1     6 1
     3     7     2 1
     4     2     3 1
     5     3     4 2
     6     4     5 1
     7     4     8 1
     8     6     5 1
     9     5     9 1
    10    23     6 1
    11     6    22 1
    12     7    24 1
    13     7    25 1
    14     8    26 1
    15     8    27 1
    16     9    10 1
    17    10    11 1
    18    10    28 1
    19    10    29 1
    20    12    11 1
    21    11    30 1
    22    11    31 1
    23    12    13 1
    24    12    32 1
    25    12    33 1
    26    14    13 1
    27    19    14 ar
    28    14    15 ar
    29    16    15 ar
    30    15    20 1
    31    17    16 ar
    32    16    21 1
    33    18    17 ar
    34    17    34 1
    35    18    19 ar
    36    18    35 1
    37    19    36 1
    38    22    37 1
    39    22    38 1
    40    22    39 1
    41    23    40 1
    42    23    41 1
    43    23    42 1
    44    43     7 1
    45    44     8 1
@<TRIPOS>SUBSTRUCTURE
     1 C50         1 TEMP              0 ****  ****    0 ROOT
