@<TRIPOS>MOLECULE
C51
   54    56     1     0     0
SMALL
bcc


@<TRIPOS>ATOM
      1 C13          0.0000     0.0000     0.0000 ca         1 C51      -0.108000
      2 C18          1.3920     0.0000     0.0000 ca         1 C51      -0.142500
      3 C17          2.0810     0.0000     1.1920 ca         1 C51      -0.047000
      4 C16          1.3820     0.0020     2.4020 ca         1 C51       0.034000
      5 C15         -0.0160     0.0020     2.3980 ca         1 C51      -0.047000
      6 C19          2.0960     0.0010     3.6430 c1         1 C51      -0.099000
      7 C21         -4.6470    -3.4210    -2.9510 c2         1 C51      -0.159000
      8 C22         -4.4530    -4.9370    -3.0660 c2         1 C51      -0.038000
      9 C24         -7.0310    -4.6500    -3.7020 ca         1 C51      -0.002000
     10 C27         -9.3910    -4.6100    -4.3080 ca         1 C51      -0.041000
     11 C1          -3.9680     1.3600    -2.4290 c2         1 C51      -0.152000
     12 C2          -5.0260     0.5300    -1.0450 c2         1 C51      -0.222000
     13 C3          -5.0790    -1.0230    -1.2070 c3         1 C51      -0.093000
     14 C4          -5.8060    -1.3970    -2.5310 c3         1 C51      -0.054000
     15 C5          -5.1330    -0.8650    -3.6010 c3         1 C51      -0.091000
     16 C6          -4.7800     0.6770    -3.5460 c3         1 C51      -0.089000
     17 C7          -5.8020    -2.9600    -2.5910 c2         1 C51      -0.055000
     18 C8          -2.6840     0.5420    -2.5780 c3         1 C51      -0.103000
     19 C9          -1.8640     1.0880    -3.7490 c3         1 C51      -0.111000
     20 C10         -1.8750     0.6420    -1.3100 c2         1 C51       0.225000
     21 N11         -0.6950    -0.0020    -1.2110 ns         1 C51       0.087000
     22 O12         -2.2870     1.3030    -0.3790 o          1 C51      -0.378000
     23 C14         -0.6990    -0.0030     1.2020 ca         1 C51      -0.142500
     24 N20          2.6670     0.0200     4.6250 n1         1 C51      -0.053000
     25 N23         -5.5110    -5.4320    -3.3940 n2         1 C51      -0.080000
     26 C25         -6.8670    -3.3420    -3.5170 ca         1 C51      -0.058000
     27 C26         -8.0530    -5.2830    -4.0350 ca         1 C51      -0.101000
     28 C28         -9.1300    -3.4590    -4.1160 ca         1 C51      -0.134000
     29 C29         -7.8850    -2.5310    -3.6930 ca         1 C51      -0.065000
     30 H48          1.8690    -0.3330    -0.9140 ha         1 C51       0.147000
     31 H47          3.1140    -0.2280     0.9570 ha         1 C51       0.117000
     32 H46         -0.4920    -0.3150     3.3170 ha         1 C51       0.117000
     33 H50         -3.4060    -5.1780    -3.2020 h4         1 C51       0.144000
     34 H52        -10.1690    -5.0360    -4.9290 ha         1 C51       0.143000
     35 H30         -4.1790     2.3140    -1.9600 ha         1 C51       0.150000
     36 H32         -4.2410     0.9030    -0.3980 ha         1 C51       0.091000
     37 H31         -5.8410     1.2380    -1.1350 ha         1 C51       0.091000
     38 H34         -4.0280    -1.2550    -1.0770 hc         1 C51       0.058500
     39 H33         -5.5940    -1.2410    -0.2790 hc         1 C51       0.058500
     40 H35         -6.7640    -0.9900    -2.2300 hc         1 C51       0.094000
     41 H36         -4.2740    -1.4470    -3.9110 hc         1 C51       0.066500
     42 H37         -5.8810    -1.0290    -4.3680 hc         1 C51       0.066500
     43 H38         -5.6210     1.3580    -3.5970 hc         1 C51       0.037000
     44 H39         -4.3790     0.9430    -4.5170 hc         1 C51       0.037000
     45 H40         -2.9350    -0.4940    -2.7650 hc         1 C51       0.098000
     46 H43         -0.8830     0.6290    -3.7590 hc         1 C51       0.053667
     47 H42         -2.3890     0.7780    -4.6450 hc         1 C51       0.053667
     48 H41         -1.7310     2.1540    -3.6070 hc         1 C51       0.053667
     49 H44         -0.6290    -0.9650    -1.4760 hn         1 C51       0.079000
     50 H45         -1.6740     0.4540     1.0840 ha         1 C51       0.147000
     51 H51         -7.8170    -6.3210    -4.2330 ha         1 C51       0.121000
     52 H53         -9.9610    -2.7800    -3.9640 ha         1 C51       0.062000
     53 H54         -8.0470    -1.4690    -3.5550 ha         1 C51       0.146000
     54 H49         -3.7770    -2.8790    -2.6000 ha         1 C51       0.091000
@<TRIPOS>BOND
     1     1     2 1   
     2     1    21 1   
     3     1    23 1   
     4     2     3 1   
     5     2    30 1   
     6     3     4 1   
     7     3    31 1   
     8     4     5 1   
     9     4     6 1   
    10     5    23 1   
    11     5    32 1   
    12     6    24 1   
    13     7     8 1   
    14     7    17 1   
    15     7    54 1   
    16     8    25 1   
    17     8    33 1   
    18     9    25 1   
    19     9    26 1   
    20     9    27 1   
    21    10    27 1   
    22    10    28 1   
    23    10    34 1   
    24    11    16 1   
    25    11    18 1   
    26    11    35 1   
    27    12    13 1   
    28    12    36 1   
    29    12    37 1   
    30    13    14 1   
    31    13    38 1   
    32    13    39 1   
    33    14    15 1   
    34    14    17 1   
    35    14    40 1   
    36    15    16 1   
    37    15    41 1   
    38    15    42 1   
    39    16    43 1   
    40    16    44 1   
    41    17    26 1   
    42    18    19 1   
    43    18    20 1   
    44    18    45 1   
    45    19    46 1   
    46    19    47 1   
    47    19    48 1   
    48    20    21 1   
    49    20    22 1   
    50    21    49 1   
    51    23    50 1   
    52    26    29 1   
    53    27    51 1   
    54    28    29 1   
    55    28    52 1   
    56    29    53 1   
@<TRIPOS>SUBSTRUCTURE
     1 C51         1 TEMP              0 ****  ****    0 ROOT
