@<TRIPOS>MOLECULE
C52
   44    47     1     0     0
SMALL
bcc


@<TRIPOS>ATOM
      1 C8           0.0000     0.0000     0.0000 ca         1 C52      -0.035000
      2 C3           1.4010     0.0000     0.0000 ca         1 C52      -0.282600
      3 C4           2.1450     0.0000     1.1960 ca         1 C52       0.469200
      4 N2           3.4600    -0.0000     1.1170 nb         1 C52      -0.630000
      5 C1           4.0860    -0.0000    -0.0570 ca         1 C52       0.707900
      6 N3           5.4700    -0.0010    -0.0700 nv         1 C52      -0.642500
      7 N1           3.4430    -0.0010    -1.2080 nb         1 C52      -0.616000
      8 C2           2.1040    -0.0010    -1.2330 ca         1 C52       0.402600
      9 C5           1.3880    -0.0010    -2.4390 ca         1 C52      -0.153300
     10 C6           0.0280    -0.0000    -2.4220 ca         1 C52      -0.071000
     11 C7          -0.6780    -0.0070    -1.2070 ca         1 C52      -0.013800
     12 C9          -2.1590    -0.0070    -1.2180 cc         1 C52      -0.176400
     13 C10         -2.8820    -1.1080    -0.6970 c          1 C52       0.587700
     14 O1          -2.2850    -2.0660    -0.2330 o          1 C52      -0.686500
     15 C13         -2.8600     1.0730    -1.7340 cd         1 C52       0.007800
     16 C14         -2.1250     2.2640    -2.2930 c3         1 C52       0.046100
     17 C12         -4.2580     1.0390    -1.7290 cd         1 C52      -0.199000
     18 C11         -4.9100    -0.0360    -1.2250 cc         1 C52      -0.140400
     19 N4          -4.2270    -1.0940    -0.7140 n          1 C52       0.242800
     20 C15         -4.9360    -2.1870    -0.1970 ca         1 C52      -0.140400
     21 C16         -5.2760    -3.2490    -1.0240 ca         1 C52      -0.007000
     22 C20         -5.2930    -2.2110     1.1450 ca         1 C52      -0.036000
     23 C19         -5.9900    -3.2910     1.6520 ca         1 C52      -0.102000
     24 C18         -6.3330    -4.3450     0.8250 ca         1 C52      -0.025000
     25 C17         -5.9740    -4.3250    -0.5100 ca         1 C52      -0.206300
     26 C21         -6.3490    -5.4770    -1.4070 c3         1 C52       0.641200
     27 F2          -7.1560    -5.0100    -2.4510 f          1 C52      -0.205300
     28 F3          -5.1900    -6.0520    -1.9360 f          1 C52      -0.205300
     29 F1          -7.0510    -6.4350    -0.6680 f          1 C52      -0.205300
     30 H8          -0.5470    -0.0050     0.9350 ha         1 C52       0.116000
     31 H4           1.6480     0.0000     2.1580 h4         1 C52      -0.014900
     32 HN3          5.9700    -0.8680    -0.0950 hn         1 C52       0.278800
     33 HN3A         5.9710     0.8660    -0.0940 hn         1 C52       0.278800
     34 H5           1.9170     0.0040    -3.3840 ha         1 C52       0.120000
     35 H6          -0.5180    -0.0060    -3.3580 ha         1 C52       0.108000
     36 H14         -1.3480     2.5650    -1.6010 hc         1 C52       0.018033
     37 H14A        -2.8200     3.0820    -2.4350 hc         1 C52       0.018033
     38 H14B        -1.6790     1.9990    -3.2440 hc         1 C52       0.018033
     39 H12         -4.8210     1.8740    -2.1310 ha         1 C52       0.127000
     40 H11         -5.9930    -0.0510    -1.2270 h4         1 C52       0.131000
     41 H16         -4.9950    -3.2340    -2.0700 ha         1 C52       0.124000
     42 H20         -5.0250    -1.3860     1.7930 ha         1 C52       0.114000
     43 H19         -6.2710    -3.3110     2.6980 ha         1 C52       0.116000
     44 H18         -6.8800    -5.1900     1.2250 ha         1 C52       0.124000
@<TRIPOS>BOND
     1     1     2 ar  
     2     1    11 ar  
     3     1    30 1   
     4     2     3 ar  
     5     2     8 ar  
     6     3     4 ar  
     7     3    31 1   
     8     4     5 ar  
     9     5     6 1   
    10     5     7 ar  
    11     6    32 1   
    12     6    33 1   
    13     7     8 ar  
    14     8     9 ar  
    15     9    10 ar  
    16     9    34 1   
    17    10    11 ar  
    18    10    35 1   
    19    11    12 1   
    20    12    13 1   
    21    12    15 2   
    22    13    14 2   
    23    13    19 1   
    24    15    16 1   
    25    15    17 1   
    26    16    36 1   
    27    16    37 1   
    28    16    38 1   
    29    17    18 2   
    30    17    39 1   
    31    18    19 1   
    32    18    40 1   
    33    19    20 1   
    34    20    21 ar  
    35    20    22 ar  
    36    21    25 ar  
    37    21    41 1   
    38    22    23 ar  
    39    22    42 1   
    40    23    24 ar  
    41    23    43 1   
    42    24    25 ar  
    43    24    44 1   
    44    25    26 1   
    45    26    27 1   
    46    26    28 1   
    47    26    29 1   
@<TRIPOS>SUBSTRUCTURE
     1 C52         1 TEMP              0 ****  ****    0 ROOT
