@<TRIPOS>MOLECULE
molecule
   21    22     1     0     0
SMALL
bcc


@<TRIPOS>ATOM
      1 C2           0.0000     0.0000     0.0000 ca         1 C53      -0.223300
      2 C3           1.3840     0.0000     0.0000 ca         1 C53      -0.103000
      3 C4           2.0480     0.0000     1.2190 ca         1 C53      -0.240300
      4 C5           1.3140     0.0010     2.3930 ca         1 C53       0.419200
      5 N1          -0.0020     0.0010     2.3690 nb         1 C53      -0.624000
      6 C1          -0.6780     0.0020     1.2220 ca         1 C53       0.433100
      7 C6          -2.1480     0.0030     1.2420 ce         1 C53      -0.105800
      8 C7          -2.8110    -0.1210     2.4170 cd         1 C53      -0.068600
      9 S1          -4.5160     0.2400     2.7450 ss         1 C53      -0.267800
     10 C8          -2.2780    -0.5910     3.7050 c          1 C53       0.676700
     11 O1          -1.1190    -0.9340     3.8460 o          1 C53      -0.527500
     12 N2          -3.1490    -0.6150     4.7000 ns         1 C53      -0.499400
     13 C9          -4.4370    -0.2130     4.4570 cc         1 C53       0.715800
     14 N3          -5.4150    -0.1760     5.3180 n2         1 C53      -1.034100
     15 H2          -0.5500     0.0000    -0.9330 ha         1 C53       0.138000
     16 H3           1.9370    -0.0010    -0.9310 ha         1 C53       0.140000
     17 H4           3.1310     0.0000     1.2520 ha         1 C53       0.139000
     18 H5           1.8300     0.0010     3.3460 h4         1 C53       0.029100
     19 H6C1        -2.6820     0.3580     0.3690 ha         1 C53       0.152000
     20 H3N1        -6.0040    -0.9760     5.4410 hn         1 C53       0.499400
     21 H2N         -2.8730    -0.9200     5.6130 hn         1 C53       0.351500
@<TRIPOS>BOND
     1     1     2 ar
     2     1     6 ar
     3     1    15 1
     4     2     3 ar
     5     2    16 1
     6     3     4 ar
     7     3    17 1
     8     4    18 1
     9     4     5 ar
    10     5     6 ar
    11     6     7 1
    12     7    19 1
    13     7     8 2
    14     8     9 1
    15     8    10 1
    16     9    13 1
    17    10    11 2
    18    10    12 1
    19    12    21 1
    20    12    13 1
    21    13    14 2
    22    14    20 1
@<TRIPOS>SUBSTRUCTURE
     1 C53         1 TEMP              0 ****  ****    0 ROOT
