@<TRIPOS>MOLECULE
C54
   15    15     1     0     0
SMALL
bcc


@<TRIPOS>ATOM
      1 C           0.8610    2.4900   -0.3440 c         1 C54      0.907800
      2 O           0.9340    3.4290    0.5020 o         1 C54     -0.839300
      3 CA          2.1190   -1.1110    0.0350 c3        1 C54     -0.044200
      4 CB          2.5280   -0.5220    1.3940 c3        1 C54     -0.085400
      5 CG          2.0770    0.9460    1.3800 c3        1 C54     -0.044200
      6 CD          1.4340    1.1510    0.0380 ce        1 C54     -0.138400
      7 CN          1.4610    0.0210   -0.6930 c2        1 C54     -0.223200
      8 HA          1.4160   -1.9700    0.1650 hc        1 C54      0.017700
      9 HB2         3.0110   -1.4860   -0.5250 hc        1 C54      0.017700
     10 HB3         3.6330   -0.5960    1.5390 hc        1 C54      0.016700
     11 HG2         2.0390   -1.0790    2.2280 hc        1 C54      0.016700
     12 HG3         2.9380    1.6460    1.5060 hc        1 C54      0.049700
     13 HD2         1.3440    1.1630    2.1950 hc        1 C54      0.049700
     14 OXT         0.3350    2.6190   -1.4870 o         1 C54     -0.839300
     15 HN          1.0630   -0.1030   -1.7000 ha        1 C54      0.137000
@<TRIPOS>BOND
     1    1    2 1   
     2    1    6 1   
     3    1   14 1   
     4    3    4 1   
     5    3    7 1   
     6    3    8 1   
     7    3    9 1   
     8    4    5 1   
     9    4   10 1   
    10    4   11 1   
    11    5    6 1   
    12    5   12 1   
    13    5   13 1   
    14    6    7 2   
    15    7   15 1   
@<TRIPOS>SUBSTRUCTURE
     1 C54         1 TEMP              0 ****  ****    0 ROOT
