@<TRIPOS>MOLECULE
molecule
   15    15     1     0     0
SMALL
bcc


@<TRIPOS>ATOM
      1 C            0.0000     0.0000     0.0000 c          1 C54       0.900600
      2 O           -0.6040     0.0010     1.0460 o          1 C54      -0.850300
      3 CA           1.5070     0.0000     0.0000 c3         1 C54      -0.154500
      4 CB           2.0460     0.0000     1.4490 c3         1 C54      -0.071400
      5 CG           3.2930     0.9030     1.3110 c3         1 C54      -0.052200
      6 CD           3.0080     1.7720     0.1080 c2         1 C54      -0.260200
      7 CN           2.0340     1.2800    -0.6060 c2         1 C54      -0.079200
      8 HA           1.8890    -0.8560    -0.5420 hc         1 C54       0.052700
      9 HB2          1.3260     0.4380     2.1290 hc         1 C54       0.050700
     10 HB3          2.3250    -1.0000     1.7570 hc         1 C54       0.050700
     11 HG2          3.4140     1.5150     2.1970 hc         1 C54       0.019700
     12 HG3          4.1770     0.3000     1.1380 hc         1 C54       0.019700
     13 HD2          3.8140     2.3120    -0.3730 ha         1 C54       0.101000
     14 OXT         -0.6720    -0.0130    -1.1620 o          1 C54      -0.850300
     15 HN           2.0310     1.4120    -1.6820 ha         1 C54       0.122000
@<TRIPOS>BOND
     1     1     2 1
     2     1     3 1
     3     3     4 1
     4     3     7 1
     5     4     5 1
     6     5     6 1
     7     6     7 2
     8     3     8 1
     9     4     9 1
    10     4    10 1
    11     5    11 1
    12     5    12 1
    13     6    13 1
    14     1    14 1
    15     7    15 1
@<TRIPOS>SUBSTRUCTURE
     1 C54         1 TEMP              0 ****  ****    0 ROOT
