@<TRIPOS>MOLECULE
molecule
   51    52     1     0     0
SMALL
bcc


@<TRIPOS>ATOM
      1 O16          0.0000     0.0000     0.0000 o          1 C56      -0.584100
      2 C15          1.2160     0.0000     0.0000 c          1 C56       0.676700
      3 C2           1.9520     0.0000     1.2760 ca         1 C56      -0.194600
      4 C3           1.2520    -0.0000     2.4920 ca         1 C56       0.239100
      5 O13         -0.1040    -0.0010     2.4990 os         1 C56      -0.269900
      6 C14         -0.7470    -0.0010     3.7760 c3         1 C56       0.118700
      7 C4           1.9530    -0.0010     3.6850 ca         1 C56      -0.287000
      8 C5           3.3430     0.0000     3.6720 ca         1 C56       0.206600
      9 N10          4.0470    -0.0000     4.8710 nh         1 C56      -0.609000
     10 C12          3.7220     1.1880     5.6730 c3         1 C56       0.160600
     11 C11          3.7940    -1.2320     5.6300 c3         1 C56       0.160600
     12 C6           4.0320    -0.0000     2.4620 ca         1 C56      -0.189200
     13 N7           5.5130    -0.0000     2.4580 no         1 C56       0.301200
     14 O9           6.1190    -0.0010     1.4020 o          1 C56      -0.199000
     15 O8           6.1250    -0.0010     3.5110 o          1 C56      -0.199000
     16 C1           3.3510    -0.0050     1.2780 ca         1 C56      -0.014000
     17 N17          1.8910    -0.0050    -1.1670 ns         1 C56      -0.585900
     18 C18          1.1590    -0.0110    -2.4360 c3         1 C56       0.093000
     19 C05          2.1490     0.1070    -3.5960 c3         1 C56       0.143500
     20 C06          3.0790    -1.1240    -3.6200 c3         1 C56      -0.106400
     21 C07          3.2430    -1.4080    -5.1370 c3         1 C56      -0.089400
     22 C08          1.8380    -1.0410    -5.6770 c3         1 C56       0.150800
     23 N09          1.4200     0.1290    -4.8770 n3         1 C56      -0.706600
     24 C10         -0.0320     0.1240    -4.6570 c3         1 C56       0.142800
     25 C13         -0.7520     0.2780    -5.9980 c3         1 C56      -0.093100
     26 H17          2.8910     0.0430    -1.1660 hn         1 C56       0.315500
     27 H1           3.8940    -0.0050     0.3410 ha         1 C56       0.167000
     28 H4           1.4200    -0.0010     4.6280 ha         1 C56       0.157000
     29 H141        -0.4670     0.8920     4.3210 h1         1 C56       0.048033
     30 H142        -0.4400    -0.8770     4.3340 h1         1 C56       0.048033
     31 H143        -1.8220    -0.0190     3.6390 h1         1 C56       0.048033
     32 H121         3.5770     2.0380     5.0170 h1         1 C56       0.041367
     33 H122         2.8140     1.0070     6.2350 h1         1 C56       0.041367
     34 H123         4.5350     1.3950     6.3570 h1         1 C56       0.041367
     35 H111         2.8750    -1.1270     6.1940 h1         1 C56       0.041367
     36 H112         4.6170    -1.4110     6.3120 h1         1 C56       0.041367
     37 H113         3.7050    -2.0660     4.9450 h1         1 C56       0.041367
     38 H181         0.4730     0.8270    -2.4610 h1         1 C56       0.061200
     39 H182         0.6030    -0.9360    -2.5280 h1         1 C56       0.061200
     40 H05          2.7390     1.0100    -3.4940 h1         1 C56       0.073700
     41 H061         2.6110    -1.9650    -3.1230 hc         1 C56       0.051700
     42 H062         4.0360    -0.8880    -3.1710 hc         1 C56       0.051700
     43 H071         4.0020    -0.7680    -5.5690 hc         1 C56       0.055200
     44 H072         3.4620    -2.4550    -5.3110 hc         1 C56       0.055200
     45 H081         1.1510    -1.8650    -5.5260 h1         1 C56       0.045700
     46 H082         1.8970    -0.7780    -6.7260 h1         1 C56       0.045700
     47 H101        -0.3010     0.9470    -4.0050 h1         1 C56       0.040200
     48 H102        -0.3240    -0.8120    -4.1960 h1         1 C56       0.040200
     49 H131        -0.8350    -0.6900    -6.4770 hc         1 C56       0.040033
     50 H132        -0.1890     0.9500    -6.6350 hc         1 C56       0.040033
     51 H133        -1.7430     0.6850    -5.8310 hc         1 C56       0.040033
@<TRIPOS>BOND
     1     1     2 2
     2     2     3 1
     3     2    17 1
     4     3     4 ar
     5     3    16 ar
     6     4     5 1
     7     4     7 ar
     8     5     6 1
     9     7     8 ar
    10     8     9 1
    11     8    12 ar
    12     9    10 1
    13     9    11 1
    14    12    13 1
    15    12    16 ar
    16    13    14 1
    17    13    15 1
    18    17    18 1
    19    19    20 1
    20    19    23 1
    21    19    18 1
    22    20    21 1
    23    21    22 1
    24    22    23 1
    25    23    24 1
    26    24    25 1
    27    17    26 1
    28    16    27 1
    29     7    28 1
    30     6    29 1
    31     6    30 1
    32     6    31 1
    33    10    32 1
    34    10    33 1
    35    10    34 1
    36    11    35 1
    37    11    36 1
    38    11    37 1
    39    18    38 1
    40    18    39 1
    41    19    40 1
    42    20    41 1
    43    20    42 1
    44    21    43 1
    45    21    44 1
    46    22    45 1
    47    22    46 1
    48    24    47 1
    49    24    48 1
    50    25    49 1
    51    25    50 1
    52    25    51 1
@<TRIPOS>SUBSTRUCTURE
     1 C56         1 TEMP              0 ****  ****    0 ROOT
