@<TRIPOS>MOLECULE
C57
   51    52     1     0     0
SMALL
bcc


@<TRIPOS>ATOM
      1 O16          0.0000     0.0000     0.0000 o          1 C57      -0.633100
      2 C15          1.2170     0.0000     0.0000 c          1 C57       0.598700
      3 C2           1.9520     0.0000     1.2750 ca         1 C57      -0.216600
      4 C3           1.2520    -0.0020     2.4920 ca         1 C57       0.272100
      5 O13         -0.1050    -0.0020     2.4990 os         1 C57      -0.245900
      6 C14         -0.7480    -0.0030     3.7750 c3         1 C57       0.231700
      7 C4           1.9520    -0.0020     3.6850 ca         1 C57      -0.289000
      8 C5           3.3420    -0.0020     3.6720 ca         1 C57       0.167600
      9 N10          4.0460    -0.0020     4.8710 nh         1 C57      -0.399000
     10 C12          3.7210     1.1850     5.6730 c3         1 C57       0.187100
     11 C11          3.7940    -1.2350     5.6300 c3         1 C57       0.187100
     12 C6           4.0320    -0.0010     2.4610 ca         1 C57      -0.484200
     13 N7           5.5120    -0.0020     2.4580 no         1 C57       1.055200
     14 O9           6.1190    -0.0010     1.4020 o          1 C57      -0.448000
     15 O8           6.1240    -0.0030     3.5120 o          1 C57      -0.448000
     16 C1           3.3500    -0.0060     1.2790 ca         1 C57       0.039000
     17 N17          1.8910    -0.0040    -1.1660 ns         1 C57      -0.208900
     18 C18          1.1580    -0.0090    -2.4360 c3         1 C57       0.061000
     19 C07          1.6640    -1.4580    -5.6300 c3         1 C57      -0.025400
     20 C06          1.3970    -0.1030    -4.9360 c3         1 C57      -0.026400
     21 C05          2.1450    -0.1840    -3.5920 c3         1 C57       0.107500
     22 N09          2.7710    -1.5220    -3.5240 n3         1 C57      -0.539600
     23 C10          4.0570    -1.4670    -2.8160 c3         1 C57       0.144800
     24 C08          2.9560    -1.9550    -4.9330 c3         1 C57       0.149800
     25 C13          4.6210    -2.8810    -2.6730 c3         1 C57      -0.001100
     26 H1           3.8930    -0.0050     0.3420 ha         1 C57       0.131000
     27 H17          2.8900     0.0580    -1.1660 hn         1 C57       0.188500
     28 H4           1.4190    -0.0030     4.6280 ha         1 C57       0.143000
     29 H141        -1.8220     0.0020     3.6380 h1         1 C57       0.002367
     30 H142        -0.4580    -0.8910     4.3240 h1         1 C57       0.002367
     31 H143        -0.4500     0.8780     4.3310 h1         1 C57       0.002367
     32 H121         2.8060     1.0100     6.2240 h1         1 C57       0.006700
     33 H122         4.5290     1.3840     6.3680 h1         1 C57       0.006700
     34 H123         3.5910     2.0390     5.0180 h1         1 C57       0.006700
     35 H111         2.8730    -1.1320     6.1910 h1         1 C57       0.006700
     36 H112         3.7080    -2.0700     4.9440 h1         1 C57       0.006700
     37 H113         4.6160    -1.4130     6.3130 h1         1 C57       0.006700
     38 H181         0.6290     0.9290    -2.5520 h1         1 C57       0.034200
     39 H182         0.4490    -0.8280    -2.4400 h1         1 C57       0.034200
     40 H05          2.9100     0.5820    -3.5510 h1         1 C57       0.016700
     41 H071         1.8330    -1.3180    -6.6900 hc         1 C57       0.022700
     42 H072         0.8460    -2.1460    -5.4520 hc         1 C57       0.022700
     43 H061         1.7920     0.7080    -5.5350 hc         1 C57       0.022700
     44 H062         0.3350     0.0280    -4.7670 hc         1 C57       0.022700
     45 H081         3.8290    -1.4810    -5.3650 h1         1 C57       0.017200
     46 H082         3.0300    -3.0350    -4.9930 h1         1 C57       0.017200
     47 H101         4.7520    -0.8560    -3.3780 h1         1 C57       0.007700
     48 H102         3.9100    -1.0360    -1.8330 h1         1 C57       0.007700
     49 H131         5.3220    -2.9090    -1.8480 hc         1 C57       0.009367
     50 H132         3.8120    -3.5760    -2.4830 hc         1 C57       0.009367
     51 H133         5.1300    -3.1610    -3.5880 hc         1 C57       0.009367
@<TRIPOS>BOND
     1     1     2 2   
     2     2     3 1   
     3     2    17 1   
     4     3     4 ar  
     5     3    16 ar  
     6     4     5 1   
     7     4     7 ar  
     8     5     6 1   
     9     6    29 1   
    10     6    30 1   
    11     6    31 1   
    12     7     8 ar  
    13     7    28 1   
    14     8     9 1   
    15     8    12 ar  
    16     9    10 1   
    17     9    11 1   
    18    10    32 1   
    19    10    33 1   
    20    10    34 1   
    21    11    35 1   
    22    11    36 1   
    23    11    37 1   
    24    12    13 1   
    25    12    16 ar  
    26    13    14 1   
    27    13    15 1   
    28    16    26 1   
    29    17    18 1   
    30    17    27 1   
    31    18    21 1   
    32    18    38 1   
    33    18    39 1   
    34    19    20 1   
    35    19    24 1   
    36    19    41 1   
    37    19    42 1   
    38    20    21 1   
    39    20    43 1   
    40    20    44 1   
    41    21    22 1   
    42    21    40 1   
    43    22    23 1   
    44    22    24 1   
    45    23    25 1   
    46    23    47 1   
    47    23    48 1   
    48    24    45 1   
    49    24    46 1   
    50    25    49 1   
    51    25    50 1   
    52    25    51 1   
@<TRIPOS>SUBSTRUCTURE
     1 C57         1 TEMP              0 ****  ****    0 ROOT
