@<TRIPOS>MOLECULE
C5A
   21    21     1     0     0
SMALL
bcc


@<TRIPOS>ATOM
      1 N           1.0640    0.2180   -0.9480 n3        1 C5A     -0.876800
      2 CA         -0.0250    0.2210    0.0430 c3        1 C5A      0.036200
      3 C           0.5160    0.4840    1.4880 c         1 C5A      0.888600
      4 O           1.7710    0.4060    1.6810 o         1 C5A     -0.865300
      5 OXT        -0.2890    0.7840    2.4140 o         1 C5A     -0.865300
      6 CB1        -0.8310   -1.1050    0.0060 c3        1 C5A     -0.033400
      7 CB2        -1.1030    1.2720   -0.3270 c3        1 C5A     -0.058400
      8 CG2        -2.1790    0.5520   -1.1340 c3        1 C5A     -0.060400
      9 CD         -1.8390   -0.9360   -1.1280 c3        1 C5A     -0.160700
     10 CE         -3.0540   -1.8670   -1.0270 c         1 C5A      0.910600
     11 OZ1        -2.8600   -3.1180   -1.1390 o         1 C5A     -0.875800
     12 OZ2        -4.2200   -1.3850   -0.8930 o         1 C5A     -0.875800
     13 HN1         1.6050   -0.6150   -0.7910 hn        1 C5A      0.317800
     14 HN2         1.6700    0.9890   -0.7200 hn        1 C5A      0.317800
     15 HB11       -1.3580   -1.2210    0.9850 hc        1 C5A      0.040200
     16 HB12       -0.1850   -2.0000   -0.1530 hc        1 C5A      0.040200
     17 HB21       -1.5340    1.6710    0.6270 hc        1 C5A      0.025700
     18 HB22       -0.6750    2.1310   -0.8980 hc        1 C5A      0.025700
     19 HG21       -2.2160    0.9410   -2.1820 hc        1 C5A      0.022200
     20 HG22       -3.1910    0.7070   -0.6800 hc        1 C5A      0.022200
     21 HD         -1.3270   -1.1960   -2.0960 hc        1 C5A      0.023700
@<TRIPOS>BOND
     1    1    2 1
     2    1   13 1
     3    1   14 1
     4    2    3 1
     5    2    6 1
     6    2    7 1
     7    3    4 1
     8    3    5 1
     9    6    9 1
    10    6   15 1
    11    6   16 1
    12    7    8 1
    13    7   17 1
    14    7   18 1
    15    8    9 1
    16    8   19 1
    17    8   20 1
    18    9   10 1
    19    9   21 1
    20   10   11 1
    21   10   12 1
@<TRIPOS>SUBSTRUCTURE
     1 C5A         1 TEMP              0 ****  ****    0 ROOT
