@<TRIPOS>MOLECULE
C5B
   21    21     1     0     0
SMALL
bcc


@<TRIPOS>ATOM
      1 N           1.1160    0.1330   -0.6020 n3        1 C5B     -0.910800
      2 CA         -0.1280    0.0990    0.1660 c3        1 C5B      0.071200
      3 C           0.1510    0.0290    1.7010 c         1 C5B      0.919600
      4 O          -0.5630    0.7130    2.4940 o         1 C5B     -0.869800
      5 OXT         1.0730   -0.7390    2.1130 o         1 C5B     -0.869800
      6 CB1        -1.0380   -1.1050   -0.2200 c3        1 C5B     -0.074400
      7 CB2        -1.0130    1.3140   -0.2030 c3        1 C5B     -0.063400
      8 CG2        -1.8210    0.8820   -1.4180 c3        1 C5B     -0.061400
      9 CD         -1.9410   -0.6420   -1.3610 c3        1 C5B     -0.172700
     10 CE         -1.5730   -1.2820   -2.7110 c         1 C5B      0.909600
     11 OZ1        -2.5010   -1.8340   -3.3800 o         1 C5B     -0.872800
     12 OZ2        -0.3760   -1.2420   -3.1250 o         1 C5B     -0.872800
     13 HN1         1.7520   -0.5240   -0.1890 hn        1 C5B      0.349300
     14 HN2         0.9140   -0.1640   -1.5440 hn        1 C5B      0.349300
     15 HB11       -0.4320   -1.9930   -0.5230 hc        1 C5B      0.029700
     16 HB12       -1.6530   -1.3920    0.6690 hc        1 C5B      0.029700
     17 HB21       -1.6820    1.5340    0.6680 hc        1 C5B      0.033700
     18 HB22       -0.4090    2.2280   -0.4150 hc        1 C5B      0.033700
     19 HG21       -1.2930    1.1830   -2.3580 hc        1 C5B      0.011700
     20 HG22       -2.8300    1.3640   -1.4240 hc        1 C5B      0.011700
     21 HD         -3.0030   -0.9250   -1.1350 hc        1 C5B      0.019700
@<TRIPOS>BOND
     1    1    2 1
     2    1   13 1
     3    1   14 1
     4    2    3 1
     5    2    6 1
     6    2    7 1
     7    3    4 1
     8    3    5 1
     9    6    9 1
    10    6   15 1
    11    6   16 1
    12    7    8 1
    13    7   17 1
    14    7   18 1
    15    8    9 1
    16    8   19 1
    17    8   20 1
    18    9   10 1
    19    9   21 1
    20   10   11 1
    21   10   12 1
@<TRIPOS>SUBSTRUCTURE
     1 C5B         1 TEMP              0 ****  ****    0 ROOT
