@<TRIPOS>MOLECULE
C5D
   65    65     1     0     0
SMALL
bcc


@<TRIPOS>ATOM
      1 C20         1.8740    0.2100   -0.1250 c3        1 C5D     -0.145000
      2 C22         2.0110    0.1240   -1.6390 c3        1 C5D     -0.076000
      3 C23         3.3740   -0.0510   -2.0450 c1        1 C5D     -0.007000
      4 C24         4.5080   -0.2130   -2.3950 c1        1 C5D     -0.239000
      5 C25         5.8640   -0.3890   -2.8210 c3        1 C5D      0.176000
      6 C27         5.9560   -1.4910   -3.9720 c3        1 C5D      0.390500
      7 C26         6.7870   -0.8340   -1.5970 c3        1 C5D      0.390500
      8 O3          6.3660    0.8250   -3.3330 oh        1 C5D     -0.267000
      9 F11         5.1040   -1.2590   -5.0160 f         1 C5D     -0.147500
     10 F19         5.7000   -2.7690   -3.5640 f         1 C5D     -0.147500
     11 F21         7.2050   -1.5270   -4.5390 f         1 C5D     -0.147500
     12 F28         8.1180   -0.8130   -1.9340 f         1 C5D     -0.147500
     13 F29         6.5460   -2.0940   -1.1270 f         1 C5D     -0.147500
     14 F30         6.6870   -0.0090   -0.5120 f         1 C5D     -0.147500
     15 O2          1.3280    3.1230    8.6430 oh        1 C5D     -0.327000
     16 C1         -0.2970    5.0000    7.0070 c3        1 C5D      0.010500
     17 C2         -0.8560    4.0160    8.0270 c3        1 C5D     -0.226000
     18 C3          0.0390    2.7880    8.1370 c3        1 C5D      0.010500
     19 C4          0.2630    2.1290    6.7760 c3        1 C5D     -0.241000
     20 C5          0.1740    2.9460    5.5920 c1        1 C5D     -0.073000
     21 C6         -1.5820   -0.4750    5.9870 c1        1 C5D     -0.084000
     22 C8         -1.0700   -0.8730    3.6370 c2        1 C5D     -0.061000
     23 C10        -0.1970    4.3480    5.6280 c3        1 C5D     -0.241000
     24 C12         0.2030    1.8120    2.2570 c3        1 C5D     -0.217500
     25 C13         0.2960    0.3470    1.8770 c3        1 C5D     -0.029000
     26 C14        -1.0160   -0.4030    2.2320 c3        1 C5D     -0.096000
     27 C15        -1.1220   -1.5670    1.2420 c3        1 C5D     -0.150000
     28 C16        -0.1620   -1.2730    0.0990 c3        1 C5D     -0.158000
     29 C17         0.4230    0.1300    0.3370 c3        1 C5D     -0.046000
     30 C18         1.4710   -0.2680    2.6220 c3        1 C5D     -0.217500
     31 C9         -0.4130    1.1550   -0.4170 c3        1 C5D     -0.206000
     32 H20         2.3180    1.1770    0.2320 hc        1 C5D      0.096000
     33 H20A        2.4620   -0.6270    0.3370 hc        1 C5D      0.096000
     34 H22         1.6110    1.0640   -2.1140 hc        1 C5D      0.116500
     35 H22A        1.3980   -0.7390   -2.0250 hc        1 C5D      0.116500
     36 HO3         7.2850    0.6680   -3.6080 ho        1 C5D      0.236000
     37 HO2         1.1910    3.6030    9.4670 ho        1 C5D      0.195000
     38 H1          0.7220    5.3480    7.3430 h1        1 C5D      0.102000
     39 H2         -0.9370    4.5240    9.0230 hc        1 C5D      0.091000
     40 H2A        -1.8850    3.6930    7.7240 hc        1 C5D      0.091000
     41 H3         -0.4390    2.0490    8.8430 h1        1 C5D      0.102000
     42 H4         -0.5040    1.2920    6.6380 hc        1 C5D      0.157500
     43 H4A         1.2740    1.6280    6.7710 hc        1 C5D      0.157500
     44 H6         -1.5770   -1.5090    6.3530 ha        1 C5D      0.067000
     45 H8         -0.4760   -1.7750    3.8660 ha        1 C5D      0.125000
     46 H10        -1.1840    4.4320    5.0880 hc        1 C5D      0.157500
     47 H10A        0.5480    4.9180    5.0030 hc        1 C5D      0.157500
     48 H12         0.2080    1.9310    3.3740 hc        1 C5D      0.084333
     49 H12A       -0.7320    2.2770    1.8630 hc        1 C5D      0.084333
     50 H12B        1.0780    2.3680    1.8410 hc        1 C5D      0.084333
     51 H14        -1.8730    0.3050    2.0480 hc        1 C5D      0.102000
     52 H15        -0.8570   -2.5380    1.7310 hc        1 C5D      0.084500
     53 H15A       -2.1730   -1.6570    0.8690 hc        1 C5D      0.084500
     54 H16         0.6600   -2.0340    0.0820 hc        1 C5D      0.084000
     55 H16A       -0.6870   -1.3250   -0.8880 hc        1 C5D      0.084000
     56 H18         1.5840   -1.3470    2.3560 hc        1 C5D      0.084333
     57 H18A        1.3140   -0.1830    3.7260 hc        1 C5D      0.084333
     58 H18B        2.4180    0.2710    2.3770 hc        1 C5D      0.084333
     59 H9         -0.4930    0.8770   -1.4970 hc        1 C5D      0.076333
     60 H9A        -1.4460    1.1990    0.0040 hc        1 C5D      0.076333
     61 H9B         0.0500    2.1680   -0.3460 hc        1 C5D      0.076333
     62 C7         -1.7220   -0.2060    4.6170 c2        1 C5D     -0.250000
     63 O1         -1.0660    6.1900    6.9650 oh        1 C5D     -0.327000
     64 H7         -2.2940    0.7110    4.3700 ha        1 C5D      0.156000
     65 HO1        -1.9670    5.9430    6.7240 ho        1 C5D      0.195000
@<TRIPOS>BOND
     1    1    2 1   
     2    1   29 1   
     3    1   32 1   
     4    1   33 1   
     5    2    3 1   
     6    2   34 1   
     7    2   35 1   
     8    3    4 1   
     9    4    5 1   
    10    5    6 1   
    11    5    7 1   
    12    5    8 1   
    13    6    9 1   
    14    6   10 1   
    15    6   11 1   
    16    7   12 1   
    17    7   13 1   
    18    7   14 1   
    19    8   36 1   
    20   15   18 1   
    21   15   37 1   
    22   16   17 1   
    23   16   23 1   
    24   16   38 1   
    25   16   63 1   
    26   17   18 1   
    27   17   39 1   
    28   17   40 1   
    29   18   19 1   
    30   18   41 1   
    31   19   20 1   
    32   19   42 1   
    33   19   43 1   
    34   20   23 1   
    35   21   44 1   
    36   21   62 1   
    37   22   26 1   
    38   22   45 1   
    39   22   62 1   
    40   23   46 1   
    41   23   47 1   
    42   24   25 1   
    43   24   48 1   
    44   24   49 1   
    45   24   50 1   
    46   25   26 1   
    47   25   29 1   
    48   25   30 1   
    49   26   27 1   
    50   26   51 1   
    51   27   28 1   
    52   27   52 1   
    53   27   53 1   
    54   28   29 1   
    55   28   54 1   
    56   28   55 1   
    57   29   31 1   
    58   30   56 1   
    59   30   57 1   
    60   30   58 1   
    61   31   59 1   
    62   31   60 1   
    63   31   61 1   
    64   62   64 1   
    65   63   65 1   
@<TRIPOS>SUBSTRUCTURE
     1 C5D         1 TEMP              0 ****  ****    0 ROOT
