@<TRIPOS>MOLECULE
molecule
   65    66     1     0     0
SMALL
bcc


@<TRIPOS>ATOM
      1 C20          1.5300     0.0000     0.0000 c3         1 C5D      -0.121400
      2 C22          2.0390     0.0000    -1.4430 c3         1 C5D      -0.023300
      3 C23          3.5110     0.0000    -1.4440 c1         1 C5D      -0.073100
      4 C24          4.6850     0.0100    -1.4260 c1         1 C5D      -0.245100
      5 C25          6.3890     0.4060    -1.3180 c3         1 C5D       0.127900
      6 C27          6.8810    -0.3980    -2.7170 c3         1 C5D       0.647400
      7 C26          6.8970    -0.3140    -0.0170 c3         1 C5D       0.647400
      8 O3           6.7060     1.6130    -1.3340 oh         1 C5D      -0.521800
      9 F11          8.1800    -0.4700    -2.4120 f          1 C5D      -0.201800
     10 F19          6.2450     0.3210    -3.6430 f          1 C5D      -0.201800
     11 F21          6.3250    -1.5590    -2.4510 f          1 C5D      -0.201800
     12 F28          7.4830     0.3270     0.8120 f          1 C5D      -0.201800
     13 F29          7.5200    -1.6370    -0.3740 f          1 C5D      -0.201800
     14 F30          5.8680    -0.9350     0.7140 f          1 C5D      -0.201800
     15 O2          -2.9710     6.3570     6.2660 oh         1 C5D      -0.580300
     16 C1          -3.3920     3.6120     8.3170 c3         1 C5D       0.153100
     17 C2          -3.3980     4.9980     8.2540 c3         1 C5D      -0.141400
     18 C3          -2.7090     5.1620     6.5120 c3         1 C5D       0.153100
     19 C4          -3.2460     3.9970     5.6620 c3         1 C5D      -0.063200
     20 C5          -3.3490     2.9110     6.1910 c2         1 C5D      -0.199400
     21 C6          -1.9880    -2.5970     5.1460 ce         1 C5D      -0.280000
     22 C8          -1.1520    -1.8750     2.9860 c2         1 C5D      -0.234200
     23 C10         -4.0120     2.6240     7.3310 c3         1 C5D      -0.063200
     24 C12         -1.4100     1.2260     1.6830 c3         1 C5D      -0.090600
     25 C13         -0.5270     0.0000     1.4460 c3         1 C5D      -0.069000
     26 C14         -1.3570    -1.2900     1.6130 c3         1 C5D      -0.024500
     27 C15         -0.7980    -2.2440     0.5280 c3         1 C5D      -0.070400
     28 C16         -0.5290    -1.2890    -0.6620 c3         1 C5D      -0.222400
     29 C17          0.0000     0.0000     0.0000 c3         1 C5D       0.008000
     30 C18          0.6450     0.0010     2.4320 c3         1 C5D      -0.090600
     31 C9          -0.5240     1.2280    -0.7480 c3         1 C5D      -0.091100
     32 H20          2.2660    -0.4690     0.6430 hc         1 C5D       0.074200
     33 H20A         1.3640     1.0200     0.3250 hc         1 C5D       0.074200
     34 H22          2.2050     1.0210    -1.7670 hc         1 C5D       0.076700
     35 H22A         1.3040    -0.4670    -2.0850 hc         1 C5D       0.076700
     36 HO3          5.9380     2.1380    -1.4860 ho         1 C5D       0.466000
     37 HO2         -2.1690     6.8300     6.1200 ho         1 C5D       0.408000
     38 H1          -3.9860     3.4270     9.2030 h1         1 C5D       0.012200
     39 H2          -4.4040     5.3950     8.3230 hc         1 C5D       0.067200
     40 H2A         -2.7320     5.4340     8.9880 hc         1 C5D       0.067200
     41 H3          -1.6320     5.0580     6.5680 h1         1 C5D       0.012200
     42 H4          -4.2280     4.2800     5.3010 hc         1 C5D       0.086950
     43 H4A         -2.5910     3.8850     4.8070 hc         1 C5D       0.086950
     44 H6          -2.2830    -3.1940     6.0000 ha         1 C5D       0.212000
     45 H8          -0.2320    -1.6850     3.5240 ha         1 C5D       0.138000
     46 H10         -5.0730     2.8100     7.2150 hc         1 C5D       0.086950
     47 H10A        -3.8230     1.6030     7.6390 hc         1 C5D       0.086950
     48 H12         -1.5340     1.3820     2.7480 hc         1 C5D       0.039700
     49 H12A        -0.9440     2.0980     1.2420 hc         1 C5D       0.039700
     50 H12B        -2.3800     1.0660     1.2270 hc         1 C5D       0.039700
     51 H14         -2.4060    -1.0880     1.4320 hc         1 C5D       0.062700
     52 H15         -1.6110    -2.6770    -0.0430 hc         1 C5D       0.054700
     53 H15A        -0.2000    -3.0210     0.9880 hc         1 C5D       0.054700
     54 H16         -0.9580    -1.6950    -1.5700 hc         1 C5D       0.091700
     55 H16A         0.5360    -1.1330    -0.7810 hc         1 C5D       0.091700
     56 H18          0.2670     0.1020     3.4420 hc         1 C5D       0.039700
     57 H18A         1.1920    -0.9300     2.3420 hc         1 C5D       0.039700
     58 H18B         1.3040     0.8300     2.2080 hc         1 C5D       0.039700
     59 H9          -1.6020     1.2780    -0.6490 hc         1 C5D       0.039033
     60 H9A         -0.2610     1.1510    -1.7970 hc         1 C5D       0.039033
     61 H9B         -0.0800     2.1230    -0.3290 hc         1 C5D       0.039033
     62 C7          -2.1890    -2.0250     3.8050 ce         1 C5D      -0.150000
     63 O1          -2.0310     3.2780     8.7440 oh         1 C5D      -0.580300
     64 H7          -2.2170    -0.9500     3.6730 ha         1 C5D       0.263000
     65 HO1         -2.0580     2.8810     9.5990 ho         1 C5D       0.408000
@<TRIPOS>BOND
     1     1     2 1
     2     1    29 1
     3     2     3 1
     4     3     4 3
     5     4     5 1
     6     5     6 1
     7     5     7 1
     8     5     8 1
     9     6     9 1
    10     6    10 1
    11     6    11 1
    12     7    12 1
    13     7    13 1
    14     7    14 1
    15    15    18 1
    16    16    17 1
    17    16    23 1
    18    16    63 1
    19    17    18 1
    20    18    19 1
    21    19    20 1
    22    20    21 2
    23    20    23 1
    24    21    62 1
    25    62    22 2
    26    22    26 1
    27    24    25 1
    28    25    26 1
    29    25    29 1
    30    25    30 1
    31    26    27 1
    32    27    28 1
    33    28    29 1
    34    29    31 1
    35     1    32 1
    36     1    33 1
    37     2    34 1
    38     2    35 1
    39     8    36 1
    40    15    37 1
    41    16    38 1
    42    17    39 1
    43    17    40 1
    44    18    41 1
    45    19    42 1
    46    19    43 1
    47    21    44 1
    48    62    64 1
    49    22    45 1
    50    23    46 1
    51    23    47 1
    52    24    48 1
    53    24    49 1
    54    24    50 1
    55    26    51 1
    56    27    52 1
    57    27    53 1
    58    28    54 1
    59    28    55 1
    60    30    56 1
    61    30    57 1
    62    30    58 1
    63    63    65 1
    64    31    59 1
    65    31    60 1
    66    31    61 1
@<TRIPOS>SUBSTRUCTURE
     1 C5D         1 TEMP              0 ****  ****    0 ROOT
