@<TRIPOS>MOLECULE
molecule
   28    30     1     0     0
SMALL
bcc


@<TRIPOS>ATOM
      1 O            0.0000     0.0000     0.0000 o          1 C5E      -0.669500
      2 C            1.2210     0.0000     0.0000 c          1 C5E       0.685700
      3 N            1.8910     0.0000     1.1790 n          1 C5E      -0.287000
      4 C5           1.0940    -0.1690     2.3950 c3         1 C5E       0.106000
      5 C6           1.8450     0.2600     3.6440 c3         1 C5E      -0.085700
      6 C10          1.9090     1.7750     3.7730 c3         1 C5E       0.161800
      7 N1           2.7350     2.3600     2.7120 n7         1 C5E      -0.813200
      8 C9           4.1020     1.8170     2.7430 c3         1 C5E       0.161800
      9 C8           4.0200     0.3070     2.4680 c3         1 C5E      -0.033500
     10 C7           3.2520    -0.3440     3.6250 c3         1 C5E      -0.081400
     11 C4           3.2390     0.1190     1.1870 cc         1 C5E       0.100400
     12 C3           3.9420     0.1050     0.0230 cd         1 C5E      -0.270000
     13 C2           3.2770     0.0390    -1.2070 cd         1 C5E      -0.037000
     14 C1           1.9130    -0.0070    -1.2180 cc         1 C5E      -0.276200
     15 H1           1.3730    -0.0580    -2.1560 ha         1 C5E       0.161000
     16 H51C         0.8230    -1.2140     2.4920 h1         1 C5E       0.070700
     17 H52C         0.1930     0.4260     2.3070 h1         1 C5E       0.070700
     18 H6           1.3190    -0.1310     4.5060 hc         1 C5E       0.063700
     19 H101         2.3360     2.0300     4.7360 h1         1 C5E       0.038200
     20 H102         0.9060     2.1790     3.7050 h1         1 C5E       0.038200
     21 H71C         3.7540    -0.1360     4.5630 hc         1 C5E       0.053200
     22 H72C         3.1920    -1.4140     3.4710 hc         1 C5E       0.053200
     23 HA           2.7680     3.3540     2.8250 hn         1 C5E       0.361800
     24 H91C         4.5400     1.9870     3.7190 h1         1 C5E       0.041200
     25 H92C         4.7010     2.2950     1.9780 h1         1 C5E       0.041200
     26 H8           5.0110    -0.1200     2.3780 hc         1 C5E       0.075700
     27 H2           3.8360     0.0350    -2.1350 ha         1 C5E       0.132000
     28 H3           5.0240     0.1420     0.0480 ha         1 C5E       0.139000
@<TRIPOS>BOND
     1     1     2 2
     2     2     3 1
     3     2    14 1
     4     3     4 1
     5     3    11 1
     6     4     5 1
     7     5     6 1
     8     5    10 1
     9     6     7 1
    10     7     8 1
    11     8     9 1
    12     9    10 1
    13     9    11 1
    14    11    12 2
    15    12    13 1
    16    13    14 2
    17    14    15 1
    18     4    16 1
    19     4    17 1
    20     5    18 1
    21     6    19 1
    22     6    20 1
    23    10    21 1
    24    10    22 1
    25     7    23 1
    26     8    24 1
    27     8    25 1
    28     9    26 1
    29    12    28 1
    30    13    27 1
@<TRIPOS>SUBSTRUCTURE
     1 C5E         1 TEMP              0 ****  ****    0 ROOT
