@<TRIPOS>MOLECULE
molecule
   38    41     1     0     0
SMALL
bcc


@<TRIPOS>ATOM
      1 C1           0.0000     0.0000     0.0000 cc         1 C5I      -0.198200
      2 C2           1.3440     0.0000     0.0000 cd         1 C5I      -0.154100
      3 N3           1.8060     0.0000     1.2880 na         1 C5I      -0.252100
      4 C5           0.7500    -0.0000     2.1670 ca         1 C5I       0.486800
      5 C6          -0.4240    -0.0010     1.3990 ca         1 C5I      -0.230100
      6 C7          -1.6670    -0.0010     2.0500 ca         1 C5I      -0.005200
      7 C8          -1.6840    -0.0020     3.4570 ca         1 C5I      -0.094900
      8 C9          -0.4610    -0.0010     4.1440 ca         1 C5I       0.493200
      9 N10          0.6810    -0.0010     3.4980 nb         1 C5I      -0.750000
     10 N11         -2.9730    -0.0030     3.8480 nc         1 C5I      -0.200400
     11 N12         -3.7500    -0.0020     2.8220 nd         1 C5I      -0.108400
     12 N13         -2.9740    -0.0020     1.6520 na         1 C5I       0.098900
     13 C14         -3.4700    -0.0020     0.2730 c3         1 C5I       0.095000
     14 C16         -4.3210     1.2480     0.0370 c3         1 C5I      -0.379400
     15 C17         -4.8120     1.2660    -1.4140 c3         1 C5I      -0.556400
     16 C18         -5.6830     0.0310    -1.6680 c3         1 C5I      -0.026000
     17 N19         -4.9180    -1.1700    -1.3050 n          1 C5I      -0.063800
     18 C20         -4.3250    -1.2500     0.0370 c3         1 C5I      -0.243000
     19 C21         -4.7640    -2.1790    -2.1850 c          1 C5I       0.441100
     20 O22         -4.1320    -3.1650    -1.8730 o          1 C5I      -0.542100
     21 C23         -5.3800    -2.0820    -3.5580 c3         1 C5I      -0.395300
     22 C24         -5.0700    -3.3020    -4.3220 c1         1 C5I       0.276700
     23 N25         -4.8480    -4.2400    -4.9220 n1         1 C5I      -0.294800
     24 H1          -0.5040    -0.2670    -0.9210 ha         1 C5I       0.144000
     25 H2           1.8280     0.0430    -0.9680 h4         1 C5I       0.179000
     26 HN3          2.8040    -0.0800     1.3090 hn         1 C5I       0.309700
     27 H9           0.1810     0.1490     5.0030 h4         1 C5I       0.096100
     28 H14         -2.6340    -0.0030    -0.4160 h1         1 C5I       0.069700
     29 H16         -4.6090     1.5770    -0.9550 hc         1 C5I       0.187700
     30 H16A        -3.6880     2.0980     0.2590 hc         1 C5I       0.187700
     31 H17         -5.5140     2.0400    -1.6990 hc         1 C5I       0.133200
     32 H17A        -5.4430     0.3930    -1.2970 hc         1 C5I       0.133200
     33 H18         -6.0420     0.3690    -2.6320 h1         1 C5I       0.194700
     34 H18A        -4.8380    -0.6330    -1.8100 h1         1 C5I       0.194700
     35 H20         -4.7870    -1.4470    -0.9220 h1         1 C5I       0.178200
     36 H20A        -3.9390    -2.1820     0.4320 h1         1 C5I       0.178200
     37 H23         -5.9180    -1.1600    -3.7430 hc         1 C5I       0.209700
     38 H23A        -5.5280    -3.1480    -3.6790 hc         1 C5I       0.209700
@<TRIPOS>BOND
     1     1     2 2
     2     1     5 1
     3     2     3 1
     4     3     4 1
     5     4     5 ar
     6     4     9 ar
     7     5     6 ar
     8     6     7 ar
     9     6    12 1
    10     7     8 ar
    11     7    10 1
    12     8     9 ar
    13    10    11 2
    14    11    12 1
    15    12    13 1
    16    13    14 1
    17    13    18 1
    18    14    15 1
    19    15    16 1
    20    16    17 1
    21    17    18 1
    22    17    19 1
    23    19    20 2
    24    19    21 1
    25    21    22 1
    26    22    23 3
    27     1    24 1
    28     2    25 1
    29     3    26 1
    30     8    27 1
    31    13    28 1
    32    14    29 1
    33    14    30 1
    34    15    31 1
    35    15    32 1
    36    16    33 1
    37    16    34 1
    38    18    35 1
    39    18    36 1
    40    21    37 1
    41    21    38 1
@<TRIPOS>SUBSTRUCTURE
     1 C5I         1 TEMP              0 ****  ****    0 ROOT
