@<TRIPOS>MOLECULE
C5I
   38    44     1     0     0
SMALL
bcc


@<TRIPOS>ATOM
      1 C1           0.0000     0.0000     0.0000 c2         1 C5I      -0.187000
      2 C2           1.3440     0.0000     0.0000 c2         1 C5I      -0.296000
      3 N3           1.8060     0.0000     1.2880 na         1 C5I       0.399000
      4 C5           0.7500    -0.0000     2.1670 c2         1 C5I      -0.133000
      5 C6          -0.4240    -0.0010     1.3990 c2         1 C5I      -0.138000
      6 C7          -1.6670    -0.0010     2.0500 c2         1 C5I      -0.122000
      7 C8          -1.6840    -0.0020     3.4570 c2         1 C5I      -0.185000
      8 C9          -0.4610    -0.0010     4.1440 c2         1 C5I       0.008000
      9 N10          0.6810    -0.0010     3.4980 n2         1 C5I      -0.139000
     10 N11         -2.9730    -0.0030     3.8480 n2         1 C5I       0.024000
     11 N12         -3.7500    -0.0020     2.8220 n2         1 C5I      -0.129000
     12 N13         -2.9740    -0.0020     1.6520 na         1 C5I       0.289000
     13 C14         -3.4700    -0.0020     0.2730 c3         1 C5I      -0.057000
     14 C16         -4.3210     1.2480     0.0370 c3         1 C5I      -0.338000
     15 C17         -4.8120     1.2660    -1.4140 DU         1 C5I      -0.498000
     16 C18         -5.6830     0.0310    -1.6680 c3         1 C5I      -0.183000
     17 N19         -4.9180    -1.1700    -1.3050 nx         1 C5I       1.592000
     18 C20         -4.3250    -1.2500     0.0370 c3         1 C5I      -0.492000
     19 C21         -4.7640    -2.1790    -2.1850 c2         1 C5I      -0.092000
     20 O22         -4.1320    -3.1650    -1.8730 o          1 C5I      -0.298000
     21 C23         -5.3800    -2.0820    -3.5580 c3         1 C5I      -0.299000
     22 C24         -5.0700    -3.3020    -4.3220 c2         1 C5I      -0.060000
     23 N25         -4.8480    -4.2400    -4.9220 n1         1 C5I      -0.017000
     24 H1          -0.5040    -0.2670    -0.9210 ha         1 C5I       0.124000
     25 H2           1.8280     0.0430    -0.9680 h4         1 C5I       0.155000
     26 HN3          2.8040    -0.0800     1.3090 hn         1 C5I       0.070000
     27 H9           0.1810     0.1490     5.0030 h4         1 C5I       0.184000
     28 H14         -2.6340    -0.0030    -0.4160 h1         1 C5I       0.120000
     29 H16         -4.6090     1.5770    -0.9550 DU         1 C5I       0.284000
     30 H16A        -3.6880     2.0980     0.2590 hc         1 C5I       0.086000
     31 H17         -5.5140     2.0400    -1.6990 ha         1 C5I       0.094000
     32 H17A        -5.4430     0.3930    -1.2970 ha         1 C5I       0.094000
     33 H18         -6.0420     0.3690    -2.6320 hx         1 C5I       0.156000
     34 H18A        -4.8380    -0.6330    -1.8100 DU         1 C5I      -0.089000
     35 H20         -4.7870    -1.4470    -0.9220 hx         1 C5I      -0.158000
     36 H20A        -3.9390    -2.1820     0.4320 hx         1 C5I      -0.158000
     37 H23         -5.9180    -1.1600    -3.7430 hc         1 C5I       0.184000
     38 H23A        -5.5280    -3.1480    -3.6790 DU         1 C5I       0.207000
@<TRIPOS>BOND
     1     1     2 1   
     2     1     5 1   
     3     1    24 1   
     4     2     3 1   
     5     2    25 1   
     6     3     4 1   
     7     3    26 1   
     8     4     5 1   
     9     4     9 1   
    10     5     6 1   
    11     6     7 1   
    12     6    12 1   
    13     7     8 1   
    14     7    10 1   
    15     8     9 1   
    16     8    27 1   
    17    10    11 1   
    18    11    12 1   
    19    12    13 1   
    20    13    14 1   
    21    13    18 1   
    22    13    28 1   
    23    14    15 1   
    24    14    29 1   
    25    14    30 1   
    26    15    16 1   
    27    15    29 1   
    28    15    31 1   
    29    15    32 1   
    30    16    17 1   
    31    16    33 1   
    32    16    34 1   
    33    17    18 1   
    34    17    19 1   
    35    17    34 1   
    36    18    35 1   
    37    18    36 1   
    38    19    20 1   
    39    19    21 1   
    40    21    22 1   
    41    21    37 1   
    42    21    38 1   
    43    22    23 1   
    44    22    38 1   
@<TRIPOS>SUBSTRUCTURE
     1 C5I         1 TEMP              0 ****  ****    0 ROOT
