@<TRIPOS>MOLECULE
molecule
   14    13     1     0     0
SMALL
bcc


@<TRIPOS>ATOM
      1 C2           0.0000     0.0000     0.0000 c          1 C5J       0.614100
      2 C5          -2.0210     0.0060     1.1670 c          1 C5J       0.614100
      3 N1           1.3480     0.0000     0.0000 nz         1 C5J      -0.669900
      4 N6          -2.6950     0.0060     2.3350 nz         1 C5J      -0.669900
      5 N4          -0.6730     0.0000     1.1670 ns         1 C5J      -0.593500
      6 O3          -0.6080     0.0050    -1.0530 o          1 C5J      -0.345600
      7 O7          -2.6290     0.0110     0.1140 o          1 C5J      -0.345600
      8 H1           1.6810    -0.8220     0.4640 hn         1 C5J       0.506300
      9 H2           1.6810     0.0090    -0.9440 hn         1 C5J       0.506300
     10 H3          -2.4630    -0.8180     2.8530 hn         1 C5J       0.506300
     11 H4          -3.6790     0.0200     2.1520 hn         1 C5J       0.506300
     12 H5          -0.1730    -0.0210     2.0340 hn         1 C5J       0.359500
     13 H13          1.6810     0.8120     0.4800 hn         1 C5J       0.506300
     14 H63         -2.4630     0.8300     2.8530 hn         1 C5J       0.506300
@<TRIPOS>BOND
     1     4     2 1
     2     3     1 1
     3     7     2 2
     4     2     5 1
     5     1     5 1
     6     1     6 2
     7     3     8 1
     8     3     9 1
     9     4    10 1
    10     4    11 1
    11     5    12 1
    12    13     3 1
    13    14     4 1
@<TRIPOS>SUBSTRUCTURE
     1 C5J         1 TEMP              0 ****  ****    0 ROOT
