@<TRIPOS>MOLECULE
C5M
   68    70     1     0     0
SMALL
bcc


@<TRIPOS>ATOM
      1 C1           0.0000     0.0000     0.0000 c3         1 C5M       0.215700
      2 O2           1.4290     0.0000     0.0000 os         1 C5M      -0.278900
      3 C3           1.8220     0.0000     1.3010 ca         1 C5M       0.197100
      4 C4           0.8740     0.0000     2.3130 ca         1 C5M      -0.266000
      5 C5           1.2760     0.0010     3.6340 ca         1 C5M       0.068700
      6 C6           0.2470     0.0010     4.7350 c3         1 C5M       0.014200
      7 C7           2.6230    -0.0000     3.9490 ca         1 C5M      -0.204500
      8 C8           3.5700     0.0000     2.9410 ca         1 C5M       0.070700
      9 C9           5.0360    -0.0000     3.2880 c3         1 C5M       0.018200
     10 C10          3.1730    -0.0060     1.6190 ca         1 C5M      -0.170300
     11 C11          4.2050    -0.0060     0.5210 c3         1 C5M       0.071200
     12 S12          3.1320    -0.0010     5.6360 sy         1 C5M       1.051200
     13 O13          4.4370    -0.5630     5.6440 o          1 C5M      -0.593300
     14 O14          2.0210    -0.4890     6.3750 o          1 C5M      -0.593300
     15 N15          3.3200     1.5790     6.0960 n7         1 C5M      -0.584100
     16 C16          2.1600     2.4710     6.1420 c3         1 C5M       0.191800
     17 C17          2.5150     3.7300     6.9360 c3         1 C5M       0.143100
     18 O18          3.5270     4.4610     6.2410 oh         1 C5M      -0.576800
     19 C19          1.2690     4.6040     7.0900 c3         1 C5M       0.101500
     20 C20          0.8240     5.1050     5.7140 c3         1 C5M       0.031900
     21 C21         -0.4450     5.9050     5.8570 ca         1 C5M      -0.079300
     22 C22         -0.3870     7.2820     5.9630 ca         1 C5M      -0.092000
     23 C23         -1.5510     8.0150     6.0940 ca         1 C5M      -0.103000
     24 C24         -2.7740     7.3720     6.1180 ca         1 C5M      -0.107000
     25 C25         -2.8330     5.9950     6.0110 ca         1 C5M      -0.103000
     26 C26         -1.6680     5.2620     5.8750 ca         1 C5M      -0.092000
     27 N27          1.5800     5.7520     7.9530 n7         1 C5M      -0.562200
     28 C28          1.3590     5.3120     9.3360 c3         1 C5M       0.189100
     29 C29          1.5290     6.4830    10.2690 ca         1 C5M      -0.084300
     30 C30          0.4420     7.2740    10.5920 ca         1 C5M      -0.075000
     31 C31          0.5980     8.3480    11.4470 ca         1 C5M      -0.090000
     32 C32          1.8410     8.6320    11.9820 ca         1 C5M      -0.098000
     33 C33          2.9290     7.8410    11.6600 ca         1 C5M      -0.032600
     34 Cl34         4.4900     8.1960    12.3300 cl         1 C5M      -0.030400
     35 C35          2.7710     6.7630    10.8070 ca         1 C5M      -0.098000
     36 H1C1        -0.3610     0.8780     0.5230 h1         1 C5M       0.005033
     37 H1C2        -0.3610    -0.8910     0.4990 h1         1 C5M       0.005033
     38 H1C3        -0.3610     0.0140    -1.0210 h1         1 C5M       0.005033
     39 H4          -0.1800    -0.0380     2.0680 ha         1 C5M       0.142000
     40 H6C1        -0.7360     0.1680     4.3110 hc         1 C5M       0.030367
     41 H6C2         0.4740     0.7900     5.4420 hc         1 C5M       0.030367
     42 H6C3         0.2620    -0.9550     5.2440 hc         1 C5M       0.030367
     43 H9C1         5.3180    -0.9770     3.6630 hc         1 C5M       0.031033
     44 H9C2         5.2280     0.7480     4.0470 hc         1 C5M       0.031033
     45 H9C3         5.6160     0.2270     2.4020 hc         1 C5M       0.031033
     46 H111         3.7120    -0.0890    -0.4390 hc         1 C5M       0.012367
     47 H112         4.7700     0.9180     0.5570 hc         1 C5M       0.012367
     48 H113         4.8770    -0.8450     0.6560 hc         1 C5M       0.012367
     49 H15          4.2190     1.9130     6.3810 hn         1 C5M       0.344800
     50 H161         1.8780     2.7480     5.1330 h1         1 C5M       0.034200
     51 H162         1.3320     1.9630     6.6220 h1         1 C5M       0.034200
     52 H17          2.8820     3.4480     7.9160 h1         1 C5M       0.010700
     53 H18          4.3480     4.3740     6.6970 ho         1 C5M       0.391000
     54 H19          0.4720     4.0220     7.5370 h1         1 C5M       0.046700
     55 H201         1.6000     5.7310     5.2900 hc         1 C5M       0.030700
     56 H202         0.6460     4.2590     5.0620 hc         1 C5M       0.030700
     57 H22          0.5720     7.7870     5.9450 ha         1 C5M       0.105500
     58 H23         -1.5050     9.0940     6.1780 ha         1 C5M       0.100500
     59 H24         -3.6860     7.9460     6.2220 ha         1 C5M       0.100000
     60 H25         -3.7910     5.4900     6.0270 ha         1 C5M       0.100500
     61 H26         -1.7140     4.1830     5.7910 ha         1 C5M       0.105500
     62 H27          2.5400     6.0090     7.8330 hn         1 C5M       0.265800
     63 H281         2.0770     4.5420     9.5890 h1         1 C5M       0.012700
     64 H282         0.3550     4.9150     9.4330 h1         1 C5M       0.012700
     65 H30         -0.5320     7.0520    10.1730 ha         1 C5M       0.113000
     66 H31         -0.2540     8.9680    11.6990 ha         1 C5M       0.107000
     67 H32          1.9630     9.4740    12.6520 ha         1 C5M       0.114000
     68 H35          3.6230     6.1430    10.5540 ha         1 C5M       0.111000
@<TRIPOS>BOND
     1     1     2 1   
     2     1    36 1   
     3     1    37 1   
     4     1    38 1   
     5     2     3 1   
     6     3     4 ar  
     7     3    10 ar  
     8     4     5 ar  
     9     4    39 1   
    10     5     6 1   
    11     5     7 ar  
    12     6    40 1   
    13     6    41 1   
    14     6    42 1   
    15     7     8 ar  
    16     7    12 1   
    17     8     9 1   
    18     8    10 ar  
    19     9    43 1   
    20     9    44 1   
    21     9    45 1   
    22    10    11 1   
    23    11    46 1   
    24    11    47 1   
    25    11    48 1   
    26    12    13 2   
    27    12    14 2   
    28    12    15 1   
    29    15    16 1   
    30    15    49 1   
    31    16    17 1   
    32    16    50 1   
    33    16    51 1   
    34    17    18 1   
    35    17    19 1   
    36    17    52 1   
    37    18    53 1   
    38    19    20 1   
    39    19    27 1   
    40    19    54 1   
    41    20    21 1   
    42    20    55 1   
    43    20    56 1   
    44    21    22 ar  
    45    21    26 ar  
    46    22    23 ar  
    47    22    57 1   
    48    23    24 ar  
    49    23    58 1   
    50    24    25 ar  
    51    24    59 1   
    52    25    26 ar  
    53    25    60 1   
    54    26    61 1   
    55    27    28 1   
    56    27    62 1   
    57    28    29 1   
    58    28    63 1   
    59    28    64 1   
    60    29    30 ar  
    61    29    35 ar  
    62    30    31 ar  
    63    30    65 1   
    64    31    32 ar  
    65    31    66 1   
    66    32    33 ar  
    67    32    67 1   
    68    33    34 1   
    69    33    35 ar  
    70    35    68 1   
@<TRIPOS>SUBSTRUCTURE
     1 C5M         1 TEMP              0 ****  ****    0 ROOT
