@<TRIPOS>MOLECULE
C5N
   83    88     1     0     0
SMALL
bcc


@<TRIPOS>ATOM
      1 O1           0.0000     0.0000     0.0000 os         1 C5N      -0.318900
      2 O2         -10.5760     2.6350    -3.2690 o          1 C5N      -0.644100
      3 C1           1.4290     0.0000     0.0000 c3         1 C5N       0.248700
      4 C2          -0.6180     0.0000     1.2120 ca         1 C5N       0.140100
      5 C3           0.1350     0.0000     2.3730 ca         1 C5N      -0.220000
      6 C4          -0.4980    -0.0000     3.6100 ca         1 C5N       0.047600
      7 N1           0.2630     0.0010     4.7840 nh         1 C5N      -0.366000
      8 C5          -0.6040     0.0000     5.9720 c3         1 C5N       0.136800
      9 C6           0.2620     0.0800     7.2310 c3         1 C5N       0.152800
     10 N2           1.1890    -1.0590     7.2590 n3         1 C5N      -0.548600
     11 C7           1.9870    -1.0590     8.4920 c3         1 C5N       0.189100
     12 C8           2.0550    -1.0600     6.0720 c3         1 C5N       0.152800
     13 C9           1.1900    -1.1400     4.8120 c3         1 C5N       0.136800
     14 C10         -1.8850    -0.0000     3.6800 ca         1 C5N      -0.183000
     15 C11         -2.6370     0.0000     2.5210 ca         1 C5N      -0.067000
     16 C12         -2.0090     0.0050     1.2840 ca         1 C5N      -0.059400
     17 N3          -2.7740     0.0120     0.1090 nu         1 C5N      -0.259300
     18 C13         -4.0670     0.5080     0.1260 ca         1 C5N       0.702900
     19 N4          -4.5230     1.0860     1.2270 nb         1 C5N      -0.692000
     20 C14         -5.7580     1.5600     1.2980 ca         1 C5N       0.489200
     21 C15         -6.5850     1.4500     0.1960 ca         1 C5N      -0.380900
     22 C16         -8.0140     1.9020     0.2590 c3         1 C5N       0.051900
     23 C17         -8.5040     2.4790    -1.0690 c3         1 C5N       0.060900
     24 C18         -8.0740     1.5900    -2.1990 cc         1 C5N      -0.173600
     25 C19         -6.9150     0.8460    -2.1610 cd         1 C5N      -0.421800
     26 N5          -6.8270     0.1910    -3.3360 na         1 C5N       0.682400
     27 C20         -5.7320    -0.7020    -3.7240 c3         1 C5N      -0.019400
     28 N6          -7.8530     0.4710    -4.0670 nd         1 C5N      -0.660800
     29 C21         -8.6560     1.3160    -3.4370 cc         1 C5N       0.254800
     30 C22         -9.9290     1.8640    -3.9490 c          1 C5N       0.517600
     31 N7         -10.3720     1.5090    -5.1710 ns         1 C5N      -0.041100
     32 C23        -11.5190     2.1100    -5.7020 ca         1 C5N      -0.088400
     33 C24        -12.7420     1.9620    -5.0600 ca         1 C5N      -0.070800
     34 C25        -12.8360     1.1520    -3.7920 c3         1 C5N       0.024400
     35 C26        -13.1200     2.0840    -2.6120 c3         1 C5N       0.003900
     36 C27        -13.8720     2.5570    -5.5860 ca         1 C5N      -0.100500
     37 C28        -13.7860     3.3000    -6.7480 ca         1 C5N      -0.094000
     38 C29        -12.5700     3.4500    -7.3890 ca         1 C5N      -0.100500
     39 C30        -11.4350     2.8620    -6.8660 ca         1 C5N      -0.070800
     40 C31        -10.1090     3.0300    -7.5620 c3         1 C5N       0.024400
     41 C32         -9.8640     1.8370    -8.4880 c3         1 C5N       0.003900
     42 C33         -6.0570     0.8630    -0.9640 ca         1 C5N       0.572800
     43 N8          -4.8170     0.3990    -0.9640 nb         1 C5N      -0.706000
     44 H1           1.7900    -0.8940     0.4950 h1         1 C5N      -0.001300
     45 H2           1.7900     0.8750     0.5260 h1         1 C5N      -0.001300
     46 H3           1.7900     0.0180    -1.0210 h1         1 C5N      -0.001300
     47 H4           1.2150     0.0630     2.3180 ha         1 C5N       0.132000
     48 H5          -1.2660     0.8570     5.9350 h1         1 C5N       0.024200
     49 H6          -1.1860    -0.9130     5.9920 h1         1 C5N       0.024200
     50 H7           0.8270     1.0040     7.2220 h1         1 C5N       0.014950
     51 H8          -0.3740     0.0480     8.1080 h1         1 C5N       0.014950
     52 H10          2.6370    -1.9260     8.5020 h1         1 C5N       0.000700
     53 H11          2.5870    -0.1580     8.5340 h1         1 C5N       0.000700
     54 H12          1.3270    -1.0940     9.3500 h1         1 C5N       0.000700
     55 H13          2.7170    -1.9170     6.1090 h1         1 C5N       0.014950
     56 H14          2.6380    -0.1470     6.0510 h1         1 C5N       0.014950
     57 H15          0.6240    -2.0640     4.8220 h1         1 C5N       0.024200
     58 H16          1.8250    -1.1080     3.9360 h1         1 C5N       0.024200
     59 H17         -2.3770    -0.0020     4.6450 ha         1 C5N       0.125000
     60 H18         -3.7190     0.0020     2.5790 ha         1 C5N       0.152000
     61 H19         -2.3950    -0.3660    -0.7370 hn         1 C5N       0.295800
     62 H20         -6.1150     2.0300     2.2070 h4         1 C5N      -0.013900
     63 H21         -8.0750     2.6900     1.0000 hc         1 C5N       0.023200
     64 H22         -9.5870     2.4970    -1.0490 hc         1 C5N       0.042200
     65 H23         -4.8080    -0.1390    -3.7760 h1         1 C5N       0.035367
     66 H24         -5.9460    -1.1340    -4.6950 h1         1 C5N       0.035367
     67 H25         -5.6330    -1.4930    -2.9900 h1         1 C5N       0.035367
     68 H26         -9.9070     0.7830    -5.6800 hn         1 C5N       0.183500
     69 H27        -11.9000     0.6320    -3.6250 hc         1 C5N       0.017950
     70 H28        -13.6390     0.4300    -3.8840 hc         1 C5N       0.017950
     71 H29        -14.1840     2.0940    -2.4080 hc         1 C5N       0.006367
     72 H30        -12.7900     3.0860    -2.8560 hc         1 C5N       0.006367
     73 H31        -12.5870     1.7310    -1.7370 hc         1 C5N       0.006367
     74 H32        -14.8260     2.4430    -5.0860 ha         1 C5N       0.107000
     75 H33        -14.6750     3.7640    -7.1600 ha         1 C5N       0.101000
     76 H34        -12.5070     4.0350    -8.2990 ha         1 C5N       0.107000
     77 H35        -10.1200     3.9430    -8.1440 hc         1 C5N       0.017950
     78 H36         -9.3180     3.0820    -6.8240 hc         1 C5N       0.017950
     79 H37         -8.8480     1.4840    -8.3610 hc         1 C5N       0.006367
     80 H38        -10.5570     1.0410    -8.2430 hc         1 C5N       0.006367
     81 H39        -10.0150     2.1420    -9.5170 hc         1 C5N       0.006367
     82 H40         -8.6220     1.0340     0.4820 hc         1 C5N       0.023200
     83 H41         -8.0380     3.4470    -1.2070 hc         1 C5N       0.042200
@<TRIPOS>BOND
     1     1     3 1   
     2     1     4 1   
     3     2    30 2   
     4     3    44 1   
     5     3    45 1   
     6     3    46 1   
     7     4     5 ar  
     8     4    16 ar  
     9     5     6 ar  
    10     5    47 1   
    11     6     7 1   
    12     6    14 ar  
    13     7     8 1   
    14     7    13 1   
    15     8     9 1   
    16     8    48 1   
    17     8    49 1   
    18     9    10 1   
    19     9    50 1   
    20     9    51 1   
    21    10    11 1   
    22    10    12 1   
    23    11    52 1   
    24    11    53 1   
    25    11    54 1   
    26    12    13 1   
    27    12    55 1   
    28    12    56 1   
    29    13    57 1   
    30    13    58 1   
    31    14    15 ar  
    32    14    59 1   
    33    15    16 ar  
    34    15    60 1   
    35    16    17 1   
    36    17    18 1   
    37    17    61 1   
    38    18    19 ar  
    39    18    43 ar  
    40    19    20 ar  
    41    20    21 ar  
    42    20    62 1   
    43    21    22 1   
    44    21    42 ar  
    45    22    23 1   
    46    22    63 1   
    47    22    82 1   
    48    23    24 1   
    49    23    64 1   
    50    23    83 1   
    51    24    25 2   
    52    24    29 1   
    53    25    26 1   
    54    25    42 1   
    55    26    27 1   
    56    26    28 1   
    57    27    65 1   
    58    27    66 1   
    59    27    67 1   
    60    28    29 2   
    61    29    30 1   
    62    30    31 1   
    63    31    32 1   
    64    31    68 1   
    65    32    33 ar  
    66    32    39 ar  
    67    33    34 1   
    68    33    36 ar  
    69    34    35 1   
    70    34    69 1   
    71    34    70 1   
    72    35    71 1   
    73    35    72 1   
    74    35    73 1   
    75    36    37 ar  
    76    36    74 1   
    77    37    38 ar  
    78    37    75 1   
    79    38    39 ar  
    80    38    76 1   
    81    39    40 1   
    82    40    41 1   
    83    40    77 1   
    84    40    78 1   
    85    41    79 1   
    86    41    80 1   
    87    41    81 1   
    88    42    43 ar  
@<TRIPOS>SUBSTRUCTURE
     1 C5N         1 TEMP              0 ****  ****    0 ROOT
