@<TRIPOS>MOLECULE
molecule
   83    88     1     0     0
SMALL
bcc


@<TRIPOS>ATOM
      1 O1           0.0000     0.0000     0.0000 os         1 C5N      -0.339900
      2 O2         -10.5760     2.6350    -3.2690 o          1 C5N      -0.591100
      3 C1           1.4290     0.0000     0.0000 c3         1 C5N       0.131700
      4 C2          -0.6180     0.0000     1.2120 ca         1 C5N       0.124100
      5 C3           0.1350     0.0000     2.3730 ca         1 C5N      -0.227000
      6 C4          -0.4980    -0.0000     3.6100 ca         1 C5N       0.121600
      7 N1           0.2630     0.0010     4.7840 nh         1 C5N      -0.598000
      8 C5          -0.6040     0.0000     5.9720 c3         1 C5N       0.165800
      9 C6           0.2620     0.0800     7.2310 c3         1 C5N       0.160300
     10 N2           1.1890    -1.0590     7.2590 n3         1 C5N      -0.734600
     11 C7           1.9870    -1.0590     8.4920 c3         1 C5N       0.153100
     12 C8           2.0550    -1.0600     6.0720 c3         1 C5N       0.160300
     13 C9           1.1900    -1.1400     4.8120 c3         1 C5N       0.165800
     14 C10         -1.8850    -0.0000     3.6800 ca         1 C5N      -0.200000
     15 C11         -2.6370     0.0000     2.5210 ca         1 C5N      -0.083000
     16 C12         -2.0090     0.0050     1.2840 ca         1 C5N       0.110600
     17 N3          -2.7740     0.0120     0.1090 nu         1 C5N      -0.737300
     18 C13         -4.0670     0.5080     0.1260 ca         1 C5N       0.940900
     19 N4          -4.5230     1.0860     1.2270 nb         1 C5N      -0.792000
     20 C14         -5.7580     1.5600     1.2980 ca         1 C5N       0.497200
     21 C15         -6.5850     1.4500     0.1960 ca         1 C5N      -0.370900
     22 C16         -8.0140     1.9020     0.2590 c3         1 C5N      -0.023100
     23 C17         -8.5040     2.4790    -1.0690 c3         1 C5N      -0.003100
     24 C18         -8.0740     1.5900    -2.1990 cc         1 C5N      -0.180600
     25 C19         -6.9150     0.8460    -2.1610 cd         1 C5N      -0.217800
     26 N5          -6.8270     0.1910    -3.3360 na         1 C5N       0.189400
     27 C20         -5.7320    -0.7020    -3.7240 c3         1 C5N       0.054600
     28 N6          -7.8530     0.4710    -4.0670 nd         1 C5N      -0.516800
     29 C21         -8.6560     1.3160    -3.4370 cc         1 C5N       0.260800
     30 C22         -9.9290     1.8640    -3.9490 c          1 C5N       0.609600
     31 N7         -10.3720     1.5090    -5.1710 ns         1 C5N      -0.477100
     32 C23        -11.5190     2.1100    -5.7020 ca         1 C5N       0.047600
     33 C24        -12.7420     1.9620    -5.0600 ca         1 C5N      -0.070800
     34 C25        -12.8360     1.1520    -3.7920 c3         1 C5N      -0.036600
     35 C26        -13.1200     2.0840    -2.6120 c3         1 C5N      -0.085100
     36 C27        -13.8720     2.5570    -5.5860 ca         1 C5N      -0.126000
     37 C28        -13.7860     3.3000    -6.7480 ca         1 C5N      -0.125000
     38 C29        -12.5700     3.4500    -7.3890 ca         1 C5N      -0.126000
     39 C30        -11.4350     2.8620    -6.8660 ca         1 C5N      -0.070800
     40 C31        -10.1090     3.0300    -7.5620 c3         1 C5N      -0.036600
     41 C32         -9.8640     1.8370    -8.4880 c3         1 C5N      -0.085100
     42 C33         -6.0570     0.8630    -0.9640 ca         1 C5N       0.590800
     43 N8          -4.8170     0.3990    -0.9640 nb         1 C5N      -0.801000
     44 H1           1.7900    -0.8940     0.4950 h1         1 C5N       0.042033
     45 H2           1.7900     0.8750     0.5260 h1         1 C5N       0.042033
     46 H3           1.7900     0.0180    -1.0210 h1         1 C5N       0.042033
     47 H4           1.2150     0.0630     2.3180 ha         1 C5N       0.144000
     48 H5          -1.2660     0.8570     5.9350 h1         1 C5N       0.049450
     49 H6          -1.1860    -0.9130     5.9920 h1         1 C5N       0.049450
     50 H7           0.8270     1.0040     7.2220 h1         1 C5N       0.042450
     51 H8          -0.3740     0.0480     8.1080 h1         1 C5N       0.042450
     52 H10          2.6370    -1.9260     8.5020 h1         1 C5N       0.033033
     53 H11          2.5870    -0.1580     8.5340 h1         1 C5N       0.033033
     54 H12          1.3270    -1.0940     9.3500 h1         1 C5N       0.033033
     55 H13          2.7170    -1.9170     6.1090 h1         1 C5N       0.042450
     56 H14          2.6380    -0.1470     6.0510 h1         1 C5N       0.042450
     57 H15          0.6240    -2.0640     4.8220 h1         1 C5N       0.049450
     58 H16          1.8250    -1.1080     3.9360 h1         1 C5N       0.049450
     59 H17         -2.3770    -0.0020     4.6450 ha         1 C5N       0.140000
     60 H18         -3.7190     0.0020     2.5790 ha         1 C5N       0.176000
     61 H19         -2.3950    -0.3660    -0.7370 hn         1 C5N       0.472800
     62 H20         -6.1150     2.0300     2.2070 h4         1 C5N       0.033100
     63 H21         -8.0750     2.6900     1.0000 hc         1 C5N       0.056200
     64 H22         -9.5870     2.4970    -1.0490 hc         1 C5N       0.074200
     65 H23         -4.8080    -0.1390    -3.7760 h1         1 C5N       0.068033
     66 H24         -5.9460    -1.1340    -4.6950 h1         1 C5N       0.068033
     67 H25         -5.6330    -1.4930    -2.9900 h1         1 C5N       0.068033
     68 H26         -9.9070     0.7830    -5.6800 hn         1 C5N       0.336500
     69 H27        -11.9000     0.6320    -3.6250 hc         1 C5N       0.048450
     70 H28        -13.6390     0.4300    -3.8840 hc         1 C5N       0.048450
     71 H29        -14.1840     2.0940    -2.4080 hc         1 C5N       0.037033
     72 H30        -12.7900     3.0860    -2.8560 hc         1 C5N       0.037033
     73 H31        -12.5870     1.7310    -1.7370 hc         1 C5N       0.037033
     74 H32        -14.8260     2.4430    -5.0860 ha         1 C5N       0.132000
     75 H33        -14.6750     3.7640    -7.1600 ha         1 C5N       0.129000
     76 H34        -12.5070     4.0350    -8.2990 ha         1 C5N       0.132000
     77 H35        -10.1200     3.9430    -8.1440 hc         1 C5N       0.048450
     78 H36         -9.3180     3.0820    -6.8240 hc         1 C5N       0.048450
     79 H37         -8.8480     1.4840    -8.3610 hc         1 C5N       0.037033
     80 H38        -10.5570     1.0410    -8.2430 hc         1 C5N       0.037033
     81 H39        -10.0150     2.1420    -9.5170 hc         1 C5N       0.037033
     82 H40         -8.6220     1.0340     0.4820 hc         1 C5N       0.056200
     83 H41         -8.0380     3.4470    -1.2070 hc         1 C5N       0.074200
@<TRIPOS>BOND
     1    22    21 1
     2    22    23 1
     3    20    19 ar
     4    20    21 ar
     5    19    18 ar
     6    21    42 ar
     7    23    24 1
     8    18    17 1
     9    18    43 ar
    10    42    43 ar
    11    42    25 1
    12     2    30 2
    13    24    25 2
    14    24    29 1
    15    17    16 1
    16    25    26 1
    17    30    29 1
    18    30    31 1
    19    29    28 2
    20     1     3 1
    21     1     4 1
    22    34    33 1
    23    34    35 1
    24    16     4 ar
    25    16    15 ar
    26    26    28 1
    27    26    27 1
    28    33    36 ar
    29    33    32 ar
    30    31    32 1
    31    36    37 ar
    32    32    39 ar
    33     4     5 ar
    34    37    38 ar
    35    39    38 ar
    36    39    40 1
    37    40    41 1
    38    15    14 ar
    39     5     6 ar
    40    14     6 ar
    41     6     7 1
    42     7     8 1
    43     7    13 1
    44     8     9 1
    45    13    12 1
    46     9    10 1
    47    12    10 1
    48    10    11 1
    49     3    44 1
    50     3    45 1
    51     3    46 1
    52     5    47 1
    53     8    48 1
    54     8    49 1
    55     9    50 1
    56     9    51 1
    57    11    52 1
    58    11    53 1
    59    11    54 1
    60    12    55 1
    61    12    56 1
    62    13    57 1
    63    13    58 1
    64    14    59 1
    65    15    60 1
    66    17    61 1
    67    20    62 1
    68    22    63 1
    69    23    64 1
    70    27    65 1
    71    27    66 1
    72    27    67 1
    73    31    68 1
    74    34    69 1
    75    34    70 1
    76    35    71 1
    77    35    72 1
    78    35    73 1
    79    36    74 1
    80    37    75 1
    81    38    76 1
    82    40    77 1
    83    40    78 1
    84    41    79 1
    85    41    80 1
    86    41    81 1
    87    22    82 1
    88    23    83 1
@<TRIPOS>SUBSTRUCTURE
     1 C5N         1 TEMP              0 ****  ****    0 ROOT
