@<TRIPOS>MOLECULE
C5P
   33    34     1     0     0
SMALL
bcc


@<TRIPOS>ATOM
      1 O3P         0.3100    0.2470   -1.1270 o         1 C5P     -0.847500
      2 P           1.4900    0.8210   -0.4510 p5        1 C5P      1.436800
      3 O1P         1.4390    1.4820    0.8730 o         1 C5P     -0.847500
      4 O2P         2.6970   -0.2780   -0.4290 oh        1 C5P     -0.796400
      5 O5'         2.2490    1.8570   -1.4950 os        1 C5P     -0.589200
      6 C5'         3.1170    2.7930   -0.9320 c3        1 C5P      0.169400
      7 C4'         4.3930    2.9220   -1.7740 c3        1 C5P      0.032100
      8 O4'         4.6410    4.3250   -2.0080 os        1 C5P     -0.432600
      9 C3'         5.6730    2.2880   -1.1330 c3        1 C5P      0.364800
     10 O3'         6.3950    1.5590   -1.9530 o         1 C5P     -0.859500
     11 C2'         6.4860    3.5670   -0.6440 c3        1 C5P      0.026100
     12 O2'         7.8150    3.5390   -1.0950 oh        1 C5P     -0.641800
     13 C1'         5.7670    4.7910   -1.2760 c3        1 C5P      0.262500
     14 N1          5.3280    5.7930   -0.2770 n         1 C5P     -0.347000
     15 C2          5.7820    7.1550   -0.3420 c         1 C5P      0.824900
     16 N3          5.3990    8.0810    0.6480 nc        1 C5P     -0.751100
     17 C4          4.5520    7.6810    1.6100 cd        1 C5P      0.708500
     18 C5          4.0540    6.3260    1.6890 cd        1 C5P     -0.475600
     19 C6          4.4700    5.4350    0.7180 cc        1 C5P      0.099600
     20 O2          6.5390    7.5080   -1.2750 o         1 C5P     -0.649500
     21 N4          4.0850    8.6130    2.5550 nh        1 C5P     -0.894800
     22 H5'1        3.3590    2.4910    0.1270 h1        1 C5P      0.016200
     23 H5'2        2.6010    3.7990   -0.9120 h1        1 C5P      0.016200
     24 H4'         4.2260    2.4890   -2.7960 h1        1 C5P      0.085700
     25 H3'         5.3490    1.7440   -0.1900 h1        1 C5P     -0.054300
     26 HO3'        3.5220    0.0410   -0.7810 ho        1 C5P      0.444000
     27 H2'1        6.5230    3.6290    0.4730 h1        1 C5P      0.024700
     28 HO2'        7.8720    2.8070   -1.7470 ho        1 C5P      0.439000
     29 H1'         6.4290    5.3350   -2.0120 h2        1 C5P      0.104700
     30 H5          3.3490    6.0140    2.4640 ha        1 C5P      0.150000
     31 H6          4.1180    4.3790    0.7120 h4        1 C5P      0.200000
     32 HN41        4.6130    9.4530    2.6330 hn        1 C5P      0.389300
     33 HN42        3.8560    8.2000    3.4310 hn        1 C5P      0.389300
@<TRIPOS>BOND
     1    1    2 1   
     2    2    3 1   
     3    2    4 1   
     4    2    5 1   
     5    4   26 1   
     6    5    6 1   
     7    6    7 1   
     8    6   22 1   
     9    6   23 1   
    10    7    8 1   
    11    7    9 1   
    12    7   24 1   
    13    8   13 1   
    14    9   10 1   
    15    9   11 1   
    16    9   25 1   
    17   11   12 1   
    18   11   13 1   
    19   11   27 1   
    20   12   28 1   
    21   13   14 1   
    22   13   29 1   
    23   14   15 1   
    24   14   19 1   
    25   15   16 1   
    26   15   20 2   
    27   16   17 2   
    28   17   18 1   
    29   17   21 1   
    30   18   19 2   
    31   18   30 1   
    32   19   31 1   
    33   21   32 1   
    34   21   33 1   
@<TRIPOS>SUBSTRUCTURE
     1 C5P         1 TEMP              0 ****  ****    0 ROOT
