@<TRIPOS>MOLECULE
molecule
   34    35     1     0     0
SMALL
bcc


@<TRIPOS>ATOM
      1 O3P          0.0000     0.0000     0.0000 o          1 C5P      -0.728500
      2 P            1.6100     0.0000     0.0000 p5         1 C5P       1.164900
      3 O1P          2.1470     0.0000     1.5180 o          1 C5P      -0.728500
      4 O2P          2.1040     1.2070    -0.6980 o          1 C5P      -0.728500
      5 O5'          2.1470    -1.3150    -0.7580 os         1 C5P      -0.527200
      6 C5'          3.5690    -1.2000    -0.8290 c3         1 C5P       0.161400
      7 C4'          4.1460    -2.4240    -1.5420 c3         1 C5P       0.131100
      8 O4'          3.7340    -2.4390    -2.9280 os         1 C5P      -0.356600
      9 C3'          5.6870    -2.3460    -1.5900 c3         1 C5P       0.103100
     10 O3'          6.2620    -3.1320    -0.5440 oh         1 C5P      -0.584800
     11 C2'          6.0520    -2.9340    -2.9730 c3         1 C5P       0.079100
     12 O2'          6.8640    -4.1010    -2.8240 oh         1 C5P      -0.589800
     13 C1'          4.6850    -3.2950    -3.5970 c3         1 C5P       0.288500
     14 N1           4.6930    -3.0200    -5.0370 n          1 C5P      -0.340000
     15 C2           4.8510    -1.7580    -5.4760 c          1 C5P       0.830900
     16 N3           4.8620    -1.4790    -6.7770 nc         1 C5P      -0.714100
     17 C4           4.7170    -2.4430    -7.6780 cd         1 C5P       0.375500
     18 C5           4.5450    -3.7760    -7.2500 cd         1 C5P      -0.386600
     19 C6           4.5420    -4.0430    -5.9230 cc         1 C5P       0.044600
     20 O2           4.9840    -0.8540    -4.6680 o          1 C5P      -0.579500
     21 N4           4.7290    -2.1430    -9.0200 nz         1 C5P      -0.690600
     22 H5'1         3.8320    -0.3040    -1.3790 h1         1 C5P       0.061700
     23 H5'2         3.9770    -1.1410     0.1730 h1         1 C5P       0.061700
     24 H4'          3.8330    -3.3370    -1.0490 h1         1 C5P       0.071700
     25 H3'          6.0150    -1.3160    -1.5210 h1         1 C5P       0.068700
     26 HO3'         6.8890    -2.6130    -0.0690 ho         1 C5P       0.398000
     27 H2'1         6.5560    -2.1900    -3.5770 h1         1 C5P       0.064700
     28 HO2'         7.7230    -3.9330    -3.1730 ho         1 C5P       0.392000
     29 H1'          4.4510    -4.3350    -3.4090 h2         1 C5P       0.074700
     30 H5           4.4260    -4.5740    -7.9730 ha         1 C5P       0.123000
     31 H6           4.4110    -5.0590    -5.5690 h4         1 C5P       0.165000
     32 HN41         5.4750    -2.6400    -9.4660 hn         1 C5P       0.431800
     33 HN42         4.8650    -1.1590    -9.1410 hn         1 C5P       0.431800
     34 H43          3.8570    -2.4130    -9.4300 hn         1 C5P       0.431800
@<TRIPOS>BOND
     1     1     2 1
     2     2     3 1
     3     2     4 1
     4     2     5 1
     5     5     6 1
     6     6     7 1
     7     6    22 1
     8     6    23 1
     9     7     8 1
    10     7     9 1
    11     7    24 1
    12     8    13 1
    13     9    10 1
    14     9    11 1
    15     9    25 1
    16    10    26 1
    17    11    12 1
    18    11    13 1
    19    11    27 1
    20    12    28 1
    21    13    14 1
    22    13    29 1
    23    14    15 1
    24    14    19 1
    25    15    16 1
    26    15    20 2
    27    16    17 2
    28    17    18 1
    29    17    21 1
    30    18    19 2
    31    18    30 1
    32    19    31 1
    33    21    32 1
    34    21    33 1
    35    34    21 1
@<TRIPOS>SUBSTRUCTURE
     1 C5P         1 TEMP              0 ****  ****    0 ROOT
