@<TRIPOS>MOLECULE
molecule
   34    37     1     0     0
SMALL
bcc


@<TRIPOS>ATOM
      1 C1           0.0000     0.0000     0.0000 ca         1 C5Q      -0.174000
      2 C2           1.3880     0.0000     0.0000 ca         1 C5Q      -0.133000
      3 C3          -0.6950     0.0050     1.1760 ca         1 C5Q      -0.081000
      4 C4          -3.0770    -1.9100     3.3350 ca         1 C5Q      -0.137000
      5 C5           2.0900     0.0000     1.1850 ca         1 C5Q      -0.148000
      6 C6          -3.5480    -3.2100     3.3840 ca         1 C5Q      -0.141000
      7 C7          -0.0030     0.0110     2.3890 ca         1 C5Q      -0.084800
      8 C8          -2.3420    -1.3960     4.3800 ca         1 C5Q      -0.057300
      9 C9          -2.0720    -2.1870     5.5010 ca         1 C5Q      -0.054600
     10 C10          1.4040     0.0000     2.3960 ca         1 C5Q      -0.053200
     11 C11         -3.2860    -4.0100     4.4830 ca         1 C5Q       0.019100
     12 C12         -2.5530    -3.5020     5.5520 ca         1 C5Q       0.066100
     13 C13          0.7090     0.0210     4.5320 cc         1 C5Q      -0.032100
     14 C14         -0.4130     0.0170     3.7960 cd         1 C5Q      -0.171400
     15 C15         -1.8270     0.0200     4.3170 c3         1 C5Q       0.055100
     16 C16         -1.2850    -1.6420     6.6220 c          1 C5Q       0.892200
     17 C17         -2.7490    -5.7090     5.8300 c3         1 C5Q       0.327200
     18 N18          1.8050     0.0090     3.7120 na         1 C5Q      -0.186400
     19 O19          0.0560    -1.7720     6.6300 o          1 C5Q      -0.833300
     20 O20         -1.8460    -1.0750     7.5380 o          1 C5Q      -0.833300
     21 O21         -3.6320    -5.3000     4.7670 os         1 C5Q      -0.350900
     22 O22         -2.4310    -4.4720     6.5000 os         1 C5Q      -0.303900
     23 H1          -0.5370    -0.0000    -0.9410 ha         1 C5Q       0.111000
     24 H2           1.9240    -0.0040    -0.9410 ha         1 C5Q       0.111000
     25 H3          -1.7780     0.0050     1.1680 ha         1 C5Q       0.123000
     26 H5           3.1730    -0.0000     1.1740 ha         1 C5Q       0.110000
     27 H13          0.7430     0.0350     5.6140 h4         1 C5Q       0.226000
     28 H15         -2.4540     0.6030     3.6540 hc         1 C5Q       0.053700
     29 H15A        -1.8460     0.4560     5.3080 hc         1 C5Q       0.053700
     30 H17         -1.8530    -6.1630     5.4250 h2         1 C5Q       0.051700
     31 H17A        -3.2570    -6.3870     6.5050 h2         1 C5Q       0.051700
     32 HN18         2.7560     0.0090     4.0230 hn         1 C5Q       0.288700
     33 H4          -3.2840    -1.2940     2.4690 ha         1 C5Q       0.118000
     34 H6          -4.1260    -3.6040     2.5560 ha         1 C5Q       0.116000
@<TRIPOS>BOND
     1     3     1 ar
     2     1     2 ar
     3     1    23 1
     4     2     5 ar
     5     2    24 1
     6     3     7 ar
     7     3    25 1
     8     6     4 ar
     9     4     8 ar
    10     4    33 1
    11    10     5 ar
    12     5    26 1
    13    11     6 ar
    14     6    34 1
    15    14     7 1
    16     7    10 ar
    17     9     8 ar
    18     8    15 1
    19    12     9 ar
    20     9    16 1
    21    18    10 1
    22    21    11 1
    23    11    12 ar
    24    22    12 1
    25    14    13 2
    26    13    18 1
    27    13    27 1
    28    15    14 1
    29    15    28 1
    30    15    29 1
    31    20    16 1
    32    16    19 1
    33    17    21 1
    34    17    22 1
    35    17    30 1
    36    17    31 1
    37    18    32 1
@<TRIPOS>SUBSTRUCTURE
     1 C5Q         1 TEMP              0 ****  ****    0 ROOT
