@<TRIPOS>MOLECULE
C5Q
   34    37     1     0     0
SMALL
bcc


@<TRIPOS>ATOM
      1 C1          0.1020    1.0140   -0.0670 ca        1 C5Q     -0.173000
      2 C2          1.5020    0.9050   -0.0740 ca        1 C5Q     -0.137000
      3 C3         -0.6440    0.6500    1.0460 ca        1 C5Q     -0.090000
      4 C4         -2.8620   -2.4820    3.2620 ca        1 C5Q     -0.144000
      5 C5          2.1980    0.4310    1.0290 ca        1 C5Q     -0.151000
      6 C6         -3.3390   -3.7890    3.4560 ca        1 C5Q     -0.145000
      7 C7          0.0110    0.1680    2.1770 ca        1 C5Q     -0.073800
      8 C8         -2.2490   -1.7510    4.2820 ca        1 C5Q     -0.060300
      9 C9         -2.0670   -2.2920    5.5810 ca        1 C5Q     -0.074600
     10 C10         1.4600    0.0600    2.1610 ca        1 C5Q     -0.061200
     11 C11        -3.1670   -4.3130    4.7190 ca        1 C5Q      0.030100
     12 C12        -2.5420   -3.5780    5.7600 ca        1 C5Q      0.063100
     13 C13         0.7330   -0.6500    4.1890 cc        1 C5Q     -0.070100
     14 C14        -0.4170   -0.2920    3.4810 cd        1 C5Q     -0.152400
     15 C15        -1.7950   -0.3530    3.9980 c3        1 C5Q      0.034100
     16 C16        -1.3930   -1.4970    6.6930 c         1 C5Q      0.925200
     17 C17        -3.1370   -5.6210    6.5790 c3        1 C5Q      0.319200
     18 N18         1.8660   -0.4350    3.4010 na        1 C5Q     -0.199400
     19 O19        -0.1710   -1.7280    6.9210 o         1 C5Q     -0.820800
     20 O20        -2.0830   -0.6350    7.2990 o         1 C5Q     -0.820800
     21 O21        -3.5430   -5.5710    5.1940 os        1 C5Q     -0.358900
     22 O22        -2.5180   -4.3670    6.9150 os        1 C5Q     -0.315900
     23 H1         -0.4070    1.3940   -0.9640 ha        1 C5Q      0.112000
     24 H2          2.0570    1.2020   -0.9760 ha        1 C5Q      0.111000
     25 H3         -1.7400    0.7380    1.0440 ha        1 C5Q      0.127000
     26 H5          3.2920    0.3500    1.0150 ha        1 C5Q      0.117000
     27 H13         0.7970   -1.0490    5.2190 h4        1 C5Q      0.244000
     28 H15        -1.8580    0.2430    4.9550 hc        1 C5Q      0.064200
     29 H15A       -2.4910    0.1200    3.2530 hc        1 C5Q      0.064200
     30 H17        -2.3860   -6.4400    6.7000 h2        1 C5Q      0.048700
     31 H17A       -4.0490   -5.7550    7.2120 h2        1 C5Q      0.048700
     32 HN18        2.7920   -0.6360    3.6590 hn        1 C5Q      0.289700
     33 H4         -2.9760   -2.0260    2.2680 ha        1 C5Q      0.119000
     34 H6         -3.8180   -4.3540    2.6490 ha        1 C5Q      0.128000
@<TRIPOS>BOND
     1    1    2 ar  
     2    1    3 ar  
     3    1   23 1   
     4    2    5 ar  
     5    2   24 1   
     6    3    7 ar  
     7    3   25 1   
     8    4    6 ar  
     9    4    8 ar  
    10    4   33 1   
    11    5   10 ar  
    12    5   26 1   
    13    6   11 ar  
    14    6   34 1   
    15    7   10 ar  
    16    7   14 1   
    17    8    9 ar  
    18    8   15 1   
    19    9   12 ar  
    20    9   16 1   
    21   10   18 1   
    22   11   12 ar  
    23   11   21 1   
    24   12   22 1   
    25   13   14 2   
    26   13   18 1   
    27   13   27 1   
    28   14   15 1   
    29   15   28 1   
    30   15   29 1   
    31   16   19 1   
    32   16   20 1   
    33   17   21 1   
    34   17   22 1   
    35   17   30 1   
    36   17   31 1   
    37   18   32 1   
@<TRIPOS>SUBSTRUCTURE
     1 C5Q         1 TEMP              0 ****  ****    0 ROOT
