@<TRIPOS>MOLECULE
C5S
   16    15     1     0     0
SMALL
bcc


@<TRIPOS>ATOM
      1 C01          0.0000     0.0000     0.0000 c3         1 C5S      -0.127400
      2 C02          1.5290     0.0000     0.0000 c3         1 C5S      -0.086300
      3 C03          2.0320    -1.2300    -0.7110 c          1 C5S       0.985600
      4 O04          2.7270    -2.0260    -0.1230 o          1 C5S      -0.926300
      5 O05          1.7080    -1.4430    -1.9950 o          1 C5S      -0.926300
      6 N06          2.0180     0.0000     1.3810 ns         1 C5S      -0.087900
      7 C07          3.2410     0.4930     1.6640 c          1 C5S       0.603900
      8 O08          3.9360     0.9380     0.7750 o          1 C5S      -0.718100
      9 C09         -0.5020     1.2880     0.6010 c          1 C5S       0.976600
     10 O10          0.2830     2.1210     0.9890 o          1 C5S      -0.929800
     11 O11         -1.8220     1.5110     0.7040 o          1 C5S      -0.929800
     12 H1          -0.3610    -0.8370     0.5860 hc         1 C5S       0.019700
     13 H2          -0.3610    -0.0890    -1.0170 hc         1 C5S       0.019700
     14 H3           1.8900     0.8850    -0.5110 h1         1 C5S       0.068700
     15 H5           1.4580    -0.3970     2.1100 hn         1 C5S       0.141500
     16 H7           3.6100     0.4760     2.6820 h5         1 C5S      -0.081800
@<TRIPOS>BOND
     1     1     2 1   
     2     1     9 1   
     3     1    12 1   
     4     1    13 1   
     5     2     3 1   
     6     2     6 1   
     7     2    14 1   
     8     3     4 1   
     9     3     5 1   
    10     6     7 1   
    11     6    15 1   
    12     7     8 2   
    13     7    16 1   
    14     9    10 1   
    15     9    11 1   
@<TRIPOS>SUBSTRUCTURE
     1 C5S         1 TEMP              0 ****  ****    0 ROOT
