@<TRIPOS>MOLECULE
molecule
   16    15     1     0     0
SMALL
bcc


@<TRIPOS>ATOM
      1 C01          0.0000     0.0000     0.0000 c3         1 C5S      -0.176400
      2 C02          1.5290     0.0000     0.0000 c3         1 C5S       0.023700
      3 C03          2.0320    -1.2300    -0.7110 c          1 C5S       0.888600
      4 O04          2.7270    -2.0260    -0.1230 o          1 C5S      -0.877300
      5 O05          1.7080    -1.4430    -1.9950 o          1 C5S      -0.877300
      6 N06          2.0180     0.0000     1.3810 ns         1 C5S      -0.509900
      7 C07          3.2410     0.4930     1.6640 c          1 C5S       0.664900
      8 O08          3.9360     0.9380     0.7750 o          1 C5S      -0.669100
      9 C09         -0.5020     1.2880     0.6010 c          1 C5S       0.883600
     10 O10          0.2830     2.1210     0.9890 o          1 C5S      -0.880800
     11 O11         -1.8220     1.5110     0.7040 o          1 C5S      -0.880800
     12 H1          -0.3610    -0.8370     0.5860 hc         1 C5S       0.041700
     13 H2          -0.3610    -0.0890    -1.0170 hc         1 C5S       0.041700
     14 H3           1.8900     0.8850    -0.5110 h1         1 C5S       0.084700
     15 H5           1.4580    -0.3970     2.1100 hn         1 C5S       0.289500
     16 H7           3.6100     0.4760     2.6820 h5         1 C5S      -0.045800
@<TRIPOS>BOND
     1     7     6 1
     2     7     8 2
     3     6     2 1
     4     2     3 1
     5     2     1 1
     6     4     3 1
     7     3     5 1
     8     1     9 1
     9     9    10 1
    10     9    11 1
    11     1    12 1
    12     1    13 1
    13     2    14 1
    14     6    15 1
    15     7    16 1
@<TRIPOS>SUBSTRUCTURE
     1 C5S         1 TEMP              0 ****  ****    0 ROOT
