@<TRIPOS>MOLECULE
C5V
   49    53     1     0     0
SMALL
bcc


@<TRIPOS>ATOM
      1 C1           0.0000     0.0000     0.0000 c3         1 C5V       0.120300
      2 C2           1.5070     0.0000     0.0000 ca         1 C5V      -0.155300
      3 C3           2.1960     0.0000     1.1990 ca         1 C5V      -0.059500
      4 C11         -1.2180     3.4380     0.7070 ca         1 C5V      -0.168600
      5 C12         -1.2170     3.4390    -0.7020 ca         1 C5V      -0.168600
      6 C13         -0.7430     2.0990    -1.1080 c          1 C5V       0.659600
      7 C14         -1.6130     4.5730     1.3970 ca         1 C5V      -0.019500
      8 C15         -2.0070     5.7020     0.6950 ca         1 C5V      -0.089500
      9 C16         -2.0080     5.7020    -0.6880 ca         1 C5V      -0.089500
     10 C17         -1.6180     4.5740    -1.3910 ca         1 C5V      -0.019500
     11 C21          7.8490     0.5410     1.0430 cx         1 C5V      -0.210700
     12 C23          8.5560     1.2910     2.1750 cx         1 C5V      -0.013400
     13 C24          8.6540     1.8060     0.7370 cx         1 C5V      -0.057400
     14 C25          9.7840     0.6530     2.7710 ca         1 C5V      -0.176600
     15 C26         10.8860     0.3840     1.9820 ca         1 C5V       0.390200
     16 C28         12.0360    -0.4960     3.7740 ca         1 C5V       0.400200
     17 C29         10.9740    -0.2520     4.6260 ca         1 C5V      -0.218300
     18 C30          9.8240     0.3330     4.1200 ca         1 C5V      -0.056000
     19 C4           3.5780    -0.0010     1.2020 ca         1 C5V      -0.121500
     20 C5           4.2740    -0.0000     0.0000 ca         1 C5V      -0.082400
     21 C6           3.5780    -0.0000    -1.2010 ca         1 C5V      -0.121500
     22 C7           2.1970    -0.0040    -1.1980 ca         1 C5V      -0.059500
     23 N8           5.6730    -0.0010    -0.0000 ns         1 C5V      -0.026100
     24 N9          -0.4880     1.3810     0.0010 n          1 C5V      -0.131400
     25 C10         -0.7430     2.0990     1.1110 c          1 C5V       0.659600
     26 O18         -0.6050     1.7100     2.2530 o          1 C5V      -0.618500
     27 O22          5.7440     1.2960     1.7990 o          1 C5V      -0.633100
     28 N27         11.9640    -0.1740     2.4980 nb         1 C5V      -0.578000
     29 H1          -0.3610    -0.5110     0.8840 h1         1 C5V       0.042200
     30 H2          -0.3610    -0.5100    -0.8850 h1         1 C5V       0.042200
     31 H3           1.6530    -0.0000     2.1360 ha         1 C5V       0.120000
     32 H4          -1.6150     4.5790     2.4800 ha         1 C5V       0.116500
     33 H5          -2.3140     6.5900     1.2330 ha         1 C5V       0.109000
     34 H6          -2.3180     6.5900    -1.2260 ha         1 C5V       0.109000
     35 H7          -1.6200     4.5800    -2.4740 ha         1 C5V       0.116500
     36 H8           8.3270    -0.3840     0.7440 hc         1 C5V       0.070700
     37 H9           7.9000     1.8640     2.8180 hc         1 C5V       0.089700
     38 H10          8.0690     2.6900     0.5160 hc         1 C5V       0.056700
     39 H11          9.6070     1.6460     0.2470 hc         1 C5V       0.056700
     40 H12         10.8640     0.6350     0.9290 h4         1 C5V      -0.013900
     41 H13         12.9390    -0.9530     4.1610 h4         1 C5V      -0.019900
     42 H14         11.0400    -0.5170     5.6740 ha         1 C5V       0.114000
     43 H15          8.9760     0.5360     4.7640 ha         1 C5V       0.116000
     44 H16          4.1180    -0.0010     2.1420 ha         1 C5V       0.125000
     45 H17          4.1180    -0.0020    -2.1410 ha         1 C5V       0.125000
     46 H18          1.6530    -0.0040    -2.1350 ha         1 C5V       0.120000
     47 H19          6.1730    -0.5050    -0.7060 hn         1 C5V       0.169500
     48 O19         -0.6050     1.7110    -2.2510 o          1 C5V      -0.618500
     49 C20          6.3470     0.6400     0.9750 c          1 C5V       0.599100
@<TRIPOS>BOND
     1     1     2 1   
     2     1    24 1   
     3     1    29 1   
     4     1    30 1   
     5     2     3 ar  
     6     2    22 ar  
     7     3    19 ar  
     8     3    31 1   
     9     4     5 ar  
    10     4     7 ar  
    11     4    25 1   
    12     5     6 1   
    13     5    10 ar  
    14     6    24 1   
    15     6    48 2   
    16     7     8 ar  
    17     7    32 1   
    18     8     9 ar  
    19     8    33 1   
    20     9    10 ar  
    21     9    34 1   
    22    10    35 1   
    23    11    12 1   
    24    11    13 1   
    25    11    36 1   
    26    11    49 1   
    27    12    13 1   
    28    12    14 1   
    29    12    37 1   
    30    13    38 1   
    31    13    39 1   
    32    14    15 ar  
    33    14    18 ar  
    34    15    28 ar  
    35    15    40 1   
    36    16    17 ar  
    37    16    28 ar  
    38    16    41 1   
    39    17    18 ar  
    40    17    42 1   
    41    18    43 1   
    42    19    20 ar  
    43    19    44 1   
    44    20    21 ar  
    45    20    23 1   
    46    21    22 ar  
    47    21    45 1   
    48    22    46 1   
    49    23    47 1   
    50    23    49 1   
    51    24    25 1   
    52    25    26 2   
    53    27    49 2   
@<TRIPOS>SUBSTRUCTURE
     1 C5V         1 TEMP              0 ****  ****    0 ROOT
