@<TRIPOS>MOLECULE
molecule
   49    53     1     0     0
SMALL
bcc


@<TRIPOS>ATOM
      1 C1           0.0000     0.0000     0.0000 c3         1 C5V       0.164300
      2 C2           1.5070     0.0000     0.0000 ca         1 C5V      -0.145300
      3 C3           2.1960     0.0000     1.1990 ca         1 C5V      -0.088000
      4 C11         -1.2180     3.4380     0.7070 ca         1 C5V      -0.152100
      5 C12         -1.2170     3.4390    -0.7020 ca         1 C5V      -0.152100
      6 C13         -0.7430     2.0990    -1.1080 c          1 C5V       0.725100
      7 C14         -1.6130     4.5730     1.3970 ca         1 C5V      -0.060500
      8 C15         -2.0070     5.7020     0.6950 ca         1 C5V      -0.115000
      9 C16         -2.0080     5.7020    -0.6880 ca         1 C5V      -0.115000
     10 C17         -1.6180     4.5740    -1.3910 ca         1 C5V      -0.060500
     11 C21          7.8490     0.5410     1.0430 cx         1 C5V      -0.227700
     12 C23          8.5560     1.2910     2.1750 cx         1 C5V      -0.047400
     13 C24          8.6540     1.8060     0.7370 cx         1 C5V      -0.108400
     14 C25          9.7840     0.6530     2.7710 ca         1 C5V      -0.180600
     15 C26         10.8860     0.3840     1.9820 ca         1 C5V       0.415200
     16 C28         12.0360    -0.4960     3.7740 ca         1 C5V       0.417200
     17 C29         10.9740    -0.2520     4.6260 ca         1 C5V      -0.251300
     18 C30          9.8240     0.3330     4.1200 ca         1 C5V      -0.079000
     19 C4           3.5780    -0.0010     1.2020 ca         1 C5V      -0.150000
     20 C5           4.2740    -0.0000     0.0000 ca         1 C5V       0.065600
     21 C6           3.5780    -0.0000    -1.2010 ca         1 C5V      -0.150000
     22 C7           2.1970    -0.0040    -1.1980 ca         1 C5V      -0.088000
     23 N8           5.6730    -0.0010    -0.0000 ns         1 C5V      -0.473100
     24 N9          -0.4880     1.3810     0.0010 n          1 C5V      -0.488400
     25 C10         -0.7430     2.0990     1.1110 c          1 C5V       0.725100
     26 O18         -0.6050     1.7100     2.2530 o          1 C5V      -0.580500
     27 O22          5.7440     1.2960     1.7990 o          1 C5V      -0.592100
     28 N27         11.9640    -0.1740     2.4980 nb         1 C5V      -0.687000
     29 H1          -0.3610    -0.5110     0.8840 h1         1 C5V       0.075200
     30 H2          -0.3610    -0.5100    -0.8850 h1         1 C5V       0.075200
     31 H3           1.6530    -0.0000     2.1360 ha         1 C5V       0.147000
     32 H4          -1.6150     4.5790     2.4800 ha         1 C5V       0.150500
     33 H5          -2.3140     6.5900     1.2330 ha         1 C5V       0.141500
     34 H6          -2.3180     6.5900    -1.2260 ha         1 C5V       0.141500
     35 H7          -1.6200     4.5800    -2.4740 ha         1 C5V       0.150500
     36 H8           8.3270    -0.3840     0.7440 hc         1 C5V       0.095700
     37 H9           7.9000     1.8640     2.8180 hc         1 C5V       0.116700
     38 H10          8.0690     2.6900     0.5160 hc         1 C5V       0.086700
     39 H11          9.6070     1.6460     0.2470 hc         1 C5V       0.086700
     40 H12         10.8640     0.6350     0.9290 h4         1 C5V       0.022100
     41 H13         12.9390    -0.9530     4.1610 h4         1 C5V       0.024100
     42 H14         11.0400    -0.5170     5.6740 ha         1 C5V       0.140000
     43 H15          8.9760     0.5360     4.7640 ha         1 C5V       0.145000
     44 H16          4.1180    -0.0010     2.1420 ha         1 C5V       0.147000
     45 H17          4.1180    -0.0020    -2.1410 ha         1 C5V       0.147000
     46 H18          1.6530    -0.0040    -2.1350 ha         1 C5V       0.147000
     47 H19          6.1730    -0.5050    -0.7060 hn         1 C5V       0.327500
     48 O19         -0.6050     1.7110    -2.2510 o          1 C5V      -0.580500
     49 C20          6.3470     0.6400     0.9750 c          1 C5V       0.693100
@<TRIPOS>BOND
     1     8     7 ar
     2     8     9 ar
     3     7     4 ar
     4     9    10 ar
     5     4     5 ar
     6     4    25 1
     7    10     5 ar
     8    26    25 2
     9     5     6 1
    10    25    24 1
    11     6    24 1
    12     6    48 2
    13    24     1 1
    14    22    21 ar
    15    22     2 ar
    16    21    20 ar
    17     1     2 1
    18     2     3 ar
    19    20    23 1
    20    20    19 ar
    21    23    49 1
    22     3    19 ar
    23    49    11 1
    24    49    27 2
    25    11    13 1
    26    11    12 1
    27    18    17 ar
    28    18    14 ar
    29    17    16 ar
    30    13    12 1
    31    12    14 1
    32    14    15 ar
    33    16    28 ar
    34    15    28 ar
    35     1    29 1
    36     1    30 1
    37     3    31 1
    38     7    32 1
    39     8    33 1
    40     9    34 1
    41    10    35 1
    42    11    36 1
    43    12    37 1
    44    13    38 1
    45    13    39 1
    46    15    40 1
    47    16    41 1
    48    17    42 1
    49    18    43 1
    50    19    44 1
    51    21    45 1
    52    22    46 1
    53    23    47 1
@<TRIPOS>SUBSTRUCTURE
     1 C5V         1 TEMP              0 ****  ****    0 ROOT
