@<TRIPOS>MOLECULE
molecule
   83    83     1     0     0
SMALL
bcc


@<TRIPOS>ATOM
      1 C2           0.0000     0.0000     0.0000 c3         1 C61       0.129700
      2 O3           1.4290     0.0000     0.0000 os         1 C61      -0.421600
      3 C4           2.0100     0.0000     1.3050 c3         1 C61       0.142400
      4 C5           3.5350     0.0000     1.1850 c3         1 C61      -0.082400
      5 C6           4.1570    -0.0000     2.5820 c3         1 C61       0.138400
      6 O7           5.5820    -0.0010     2.4700 os         1 C61      -0.301900
      7 C9           9.7650    -0.0020     2.4400 c3         1 C61       0.125700
      8 C10          5.6340    -0.0020     4.8480 ca         1 C61      -0.195000
      9 C11          6.2930    -0.0010     3.6290 ca         1 C61       0.131100
     10 C12          7.6850    -0.0010     3.5940 ca         1 C61       0.130100
     11 C13          8.4040    -0.0020     4.7780 ca         1 C61      -0.184000
     12 C14          7.7410    -0.0030     5.9900 ca         1 C61      -0.135000
     13 C15          6.3590    -0.0020     6.0250 ca         1 C61      -0.102300
     14 C16          5.6400    -0.0030     7.3500 c3         1 C61      -0.019100
     15 C17          6.0600    -1.2320     8.1580 c3         1 C61      -0.094700
     16 C18          5.3660    -2.4740     7.5960 c3         1 C61      -0.109700
     17 C19          3.8550    -2.2350     7.5450 c3         1 C61      -0.094100
     18 C20          5.8850    -2.7550     6.1850 c3         1 C61      -0.094100
     19 C21          5.6590    -1.0410     9.6220 c3         1 C61      -0.111400
     20 C22          6.2210    -2.1920    10.4590 c3         1 C61       0.073500
     21 N23          5.5300    -3.4390    10.1050 nz         1 C61      -0.876600
     22 C24          6.0070    -1.8950    11.9450 c3         1 C61       0.071100
     23 O25          4.6090    -1.7550    12.2050 oh         1 C61      -0.580800
     24 C26          6.5690    -3.0460    12.7810 c3         1 C61      -0.094400
     25 C27          6.5080    -2.6760    14.2650 c3         1 C61      -0.154700
     26 C28          6.9110    -3.8850    15.1100 c3         1 C61      -0.119100
     27 C29          7.4550    -1.5350    14.5370 c          1 C61       0.652100
     28 O30          8.1140    -1.0640    13.6340 o          1 C61      -0.639100
     29 N31          7.5690    -1.0380    15.7850 ns         1 C61      -0.566900
     30 C32          8.4890     0.0720    16.0490 c3         1 C61       0.105000
     31 C33          8.4270     0.4420    17.5330 c3         1 C61      -0.101400
     32 C34          9.3880     1.5990    17.8100 c3         1 C61      -0.079400
     33 C35          9.3270     1.9700    19.2930 c3         1 C61      -0.092100
     34 H2C1        -0.3610    -0.8870     0.5060 h1         1 C61       0.033367
     35 H2C2        -0.3610     0.8820     0.5160 h1         1 C61       0.033367
     36 H2C3        -0.3610     0.0060    -1.0210 h1         1 C61       0.033367
     37 H4C1         1.6900    -0.8850     1.8430 h1         1 C61       0.020200
     38 H4C2         1.6900     0.8840     1.8430 h1         1 C61       0.020200
     39 H5C1         3.8550     0.8850     0.6480 hc         1 C61       0.074700
     40 H5C2         3.8550    -0.8840     0.6470 hc         1 C61       0.074700
     41 H6C1         3.8380     0.8840     3.1200 h1         1 C61       0.029200
     42 H6C2         3.8370    -0.8850     3.1200 h1         1 C61       0.029200
     43 H9C1        10.1110     0.8760     2.9710 h1         1 C61       0.045367
     44 H9C2        10.1610     0.0050     1.4320 h1         1 C61       0.045367
     45 H9C3        10.1040    -0.8930     2.9550 h1         1 C61       0.045367
     46 H13          9.4870    -0.0030     4.7530 ha         1 C61       0.149000
     47 H14          8.3050    -0.0040     6.9150 ha         1 C61       0.125000
     48 H161         5.8950     0.8950     7.8990 hc         1 C61       0.059700
     49 H162         4.5710    -0.0310     7.1800 hc         1 C61       0.059700
     50 H17          7.1340    -1.3580     8.0910 hc         1 C61       0.069700
     51 H18          5.8120    -3.2730     8.1750 hc         1 C61      -0.002300
     52 H211         6.0580    -0.1020     9.9860 hc         1 C61       0.089700
     53 H212         4.5790    -1.0310     9.7020 hc         1 C61       0.089700
     54 H191         3.5980    -1.4070     8.1950 hc         1 C61       0.054533
     55 H192         3.5600    -2.0010     6.5290 hc         1 C61       0.054533
     56 H193         3.3370    -3.1270     7.8750 hc         1 C61       0.054533
     57 H201         6.9410    -2.5200     6.1360 hc         1 C61       0.054533
     58 H202         5.7360    -3.8010     5.9470 hc         1 C61       0.054533
     59 H203         5.3450    -2.1420     5.4730 hc         1 C61       0.054533
     60 H22          7.2810    -2.2980    10.2610 hx         1 C61       0.114700
     61 H231         6.4990    -3.5910     9.9040 hn         1 C61       0.482133
     62 H232         5.1810    -3.9580    10.8860 hn         1 C61       0.482133
     63 H24          6.5170    -0.9760    12.2060 h1         1 C61       0.119700
     64 H25          5.0350    -0.9470    12.4390 ho         1 C61       0.438000
     65 H261         7.5990    -3.2290    12.4970 hc         1 C61       0.056700
     66 H262         5.9820    -3.9390    12.6070 hc         1 C61       0.056700
     67 H27          5.4990    -2.3760    14.5210 hc         1 C61       0.073700
     68 H281         5.9010    -3.6280    15.4030 hc         1 C61       0.069033
     69 H282         7.6650    -3.6810    15.8610 hc         1 C61       0.069033
     70 H283         6.9990    -4.8130    14.5580 hc         1 C61       0.069033
     71 H31          7.0000    -1.4020    16.5230 hn         1 C61       0.322500
     72 H321         8.2030     0.9280    15.4510 h1         1 C61       0.058700
     73 H322         9.4980    -0.2270    15.7930 h1         1 C61       0.058700
     74 H331         8.7120    -0.4150    18.1310 hc         1 C61       0.049200
     75 H332         7.4180     0.7420    17.7890 hc         1 C61       0.049200
     76 H341        10.3970     1.3000    17.5540 hc         1 C61       0.046700
     77 H342         9.1030     2.4560    17.2120 hc         1 C61       0.046700
     78 H351         8.3190     2.2740    19.5490 hc         1 C61       0.040033
     79 H352         9.6080     1.1120    19.8920 hc         1 C61       0.040033
     80 H353        10.0110     2.7870    19.4900 hc         1 C61       0.040033
     81 O8           8.3360    -0.0010     2.4000 os         1 C61      -0.303900
     82 H233         4.9420    -3.3750     9.2980 hn         1 C61       0.482133
     83 H10          4.5520    -0.0010     4.8780 ha         1 C61       0.140000
@<TRIPOS>BOND
     1     1     2 1
     2     1    34 1
     3     1    35 1
     4     1    36 1
     5     2     3 1
     6     3     4 1
     7     3    37 1
     8     3    38 1
     9     4     5 1
    10     4    39 1
    11     4    40 1
    12     5     6 1
    13     5    41 1
    14     5    42 1
    15     6     9 1
    16    81     7 1
    17    81    10 1
    18     7    43 1
    19     7    44 1
    20     7    45 1
    21     8     9 ar
    22     8    13 ar
    23     8    83 1
    24     9    10 ar
    25    10    11 ar
    26    11    12 ar
    27    11    46 1
    28    12    13 ar
    29    12    47 1
    30    13    14 1
    31    14    15 1
    32    14    48 1
    33    14    49 1
    34    15    16 1
    35    15    19 1
    36    15    50 1
    37    16    17 1
    38    16    18 1
    39    16    51 1
    40    17    54 1
    41    17    55 1
    42    17    56 1
    43    18    57 1
    44    18    58 1
    45    18    59 1
    46    19    20 1
    47    19    52 1
    48    19    53 1
    49    20    21 1
    50    20    22 1
    51    20    60 1
    52    21    61 1
    53    21    62 1
    54    22    23 1
    55    22    24 1
    56    22    63 1
    57    23    64 1
    58    24    25 1
    59    24    65 1
    60    24    66 1
    61    25    26 1
    62    25    27 1
    63    25    67 1
    64    26    68 1
    65    26    69 1
    66    26    70 1
    67    27    28 2
    68    27    29 1
    69    29    30 1
    70    29    71 1
    71    30    31 1
    72    30    72 1
    73    30    73 1
    74    31    32 1
    75    31    74 1
    76    31    75 1
    77    32    33 1
    78    32    76 1
    79    32    77 1
    80    33    78 1
    81    33    79 1
    82    33    80 1
    83    82    21 1
@<TRIPOS>SUBSTRUCTURE
     1 C61         1 TEMP              0 ****  ****    0 ROOT
