@<TRIPOS>MOLECULE
C62
   34    36     1     0     0
SMALL
bcc


@<TRIPOS>ATOM
      1 O4         -0.0650    0.0430    0.0200 o         1 C62     -0.571800
      2 S2          1.3020    0.2180    0.0470 sy        1 C62      1.503200
      3 O3          2.0540   -0.1330    1.1470 o         1 C62     -0.571800
      4 N6          1.8150   -1.2270   -1.1470 n4        1 C62     -0.783500
      5 C16         1.8640    1.4190   -0.8190 ca        1 C62     -0.598500
      6 C15         1.0540    2.0810   -1.7760 ca        1 C62      0.022500
      7 C14         1.5130    3.1720   -2.4830 ca        1 C62     -0.156000
      8 C13         2.8170    3.6700   -2.2620 ca        1 C62      0.049500
      9 C18         3.6370    3.0270   -1.3070 ca        1 C62     -0.156000
     10 C17         3.1680    1.9350   -0.6080 ca        1 C62      0.022500
     11 C4          3.3030    4.8040   -2.9800 cc        1 C62      0.215200
     12 O2          2.4420    5.3700   -3.9400 os        1 C62     -0.344800
     13 C3          4.4980    5.5270   -2.9410 cd        1 C62     -0.145300
     14 C2          4.3840    6.5770   -3.9040 cd        1 C62     -0.237300
     15 C1          3.1230    6.4540   -4.4940 cc        1 C62      0.354500
     16 C6          2.4960    7.2390   -5.5120 ce        1 C62     -0.149800
     17 C7          1.2780    7.0620   -6.0570 cd        1 C62     -0.080600
     18 S1          0.0880    5.8890   -5.7470 ss        1 C62     -0.105200
     19 C9         -1.0500    6.5520   -6.9600 c         1 C62      0.721100
     20 N2         -0.4790    7.6690   -7.5740 n         1 C62     -0.603500
     21 C8          0.8070    8.0100   -7.1250 c         1 C62      0.699700
     22 O1          1.4480    8.9670   -7.5670 o         1 C62     -0.541500
     23 O5         -2.1640    6.1030   -7.2220 o         1 C62     -0.519500
     24 H6N1        2.4420   -1.8700   -0.6700 hn        1 C62      0.451467
     25 H6N2        0.9920   -1.7500   -1.4370 hn        1 C62      0.451467
     26 H17         3.8150    1.4560    0.1520 ha        1 C62      0.167500
     27 H15         0.0190    1.7210   -1.9420 ha        1 C62      0.167500
     28 H18         4.6540    3.4100   -1.1170 ha        1 C62      0.178500
     29 H14         0.8630    3.6750   -3.2210 ha        1 C62      0.178500
     30 H3          5.3590    5.3380   -2.3010 ha        1 C62      0.179000
     31 H2          5.1380    7.3300   -4.1300 ha        1 C62      0.192000
     32 H6C1        3.1210    8.0870   -5.8720 ha        1 C62      0.190000
     33 HA         -0.9470    8.1930   -8.2800 hn        1 C62      0.370500
     34 H63         2.2830   -0.8890   -1.9800 hn        1 C62      0.451467
@<TRIPOS>BOND
     1    1    2 2   
     2    2    3 2   
     3    2    4 1   
     4    2    5 1   
     5    4   24 1   
     6    4   25 1   
     7    4   34 1   
     8    5    6 ar  
     9    5   10 ar  
    10    6    7 ar  
    11    6   27 1   
    12    7    8 ar  
    13    7   29 1   
    14    8    9 ar  
    15    8   11 1   
    16    9   10 ar  
    17    9   28 1   
    18   10   26 1   
    19   11   12 1   
    20   11   13 2   
    21   12   15 1   
    22   13   14 1   
    23   13   30 1   
    24   14   15 2   
    25   14   31 1   
    26   15   16 1   
    27   16   17 2   
    28   16   32 1   
    29   17   18 1   
    30   17   21 1   
    31   18   19 1   
    32   19   20 1   
    33   19   23 2   
    34   20   21 1   
    35   20   33 1   
    36   21   22 2   
@<TRIPOS>SUBSTRUCTURE
     1 C62         1 TEMP              0 ****  ****    0 ROOT
