@<TRIPOS>MOLECULE
C63
   68    61     1     0     0
SMALL
bcc


@<TRIPOS>ATOM
      1 P5         -0.8630   -1.7620    0.5530 p5        1 C63      2.762000
      2 O11        -1.1420   -3.2180   -0.0430 oh        1 C63     -0.857500
      3 C6         -1.7390   -0.1100    2.2710 c3        1 C63     -0.221500
      4 C7         -2.0320   -1.4600    1.6690 c3        1 C63     -0.817000
      5 C8         -1.9740   -2.5590    2.6970 c3        1 C63     -0.221500
      6 C9          2.5690   -1.2910    2.9230 c3        1 C63     -0.287000
      7 C10         1.6000   -0.2670    2.6040 c1        1 C63     -0.062000
      8 O4         -1.2380   -0.8680   -0.7080 oh        1 C63     -0.857500
      9 C3          0.2250   -1.7320   -3.0750 c1        1 C63      0.095000
     10 C2          0.4870   -2.4500   -4.1330 c2        1 C63     -0.424000
     11 O13        -2.9820   -3.3740   -2.4120 oh        1 C63     -0.380000
     12 C14        -3.1140   -4.7360   -2.7730 c3        1 C63     -0.094000
     13 C15        -0.1510   -6.3410   -1.4420 c3        1 C63     -0.233000
     14 C16        -0.6600   -7.4820   -0.5990 c3        1 C63     -0.149000
     15 C17        -0.1020   -7.4010    0.8130 c3        1 C63     -0.068000
     16 C1         -0.4140   -2.7280   -5.2880 c3        1 C63      0.016000
     17 O20        -1.7040   -2.1820   -4.9990 os        1 C63     -0.321000
     18 C21        -2.7120   -2.7160   -5.8480 c3        1 C63     -0.101000
     19 C22        -3.7340   -6.5180   -5.6060 c3        1 C63     -0.075000
     20 C23        -2.4510   -6.1130   -6.1790 c2        1 C63     -0.565000
     21 C24        -1.2490   -6.2740   -5.5310 c2        1 C63      0.039000
     22 C25        -0.0040   -5.9180   -6.0030 c2        1 C63     -0.565000
     23 C26         1.2250   -6.1070   -5.2350 c3        1 C63     -0.075000
     24 H2         -0.6830   -0.0950    2.6640 hc        1 C63      0.095667
     25 H3         -1.8380    0.6690    1.4770 hc        1 C63      0.095667
     26 H4         -3.0630   -1.4400    1.2210 hc        1 C63      0.148000
     27 H5         -2.4390    0.1300    3.1050 hc        1 C63      0.095667
     28 H6         -2.7360   -2.4130    3.4990 hc        1 C63      0.095667
     29 H7         -0.9580   -2.5710    3.1650 hc        1 C63      0.095667
     30 H8          2.2000   -2.2080    2.3730 hc        1 C63      0.099000
     31 H9         -2.1540   -3.5430    2.1940 hc        1 C63      0.095667
     32 H10         1.8310    0.3470    1.7200 ha        1 C63      0.032000
     33 H11         3.6190   -1.0920    2.5890 hc        1 C63      0.099000
     34 H12         2.5810   -1.5200    4.0180 hc        1 C63      0.099000
     35 H13        -0.6450   -0.8820   -1.4730 ho        1 C63      0.309000
     36 H14        -2.7640   -2.8810   -3.2140 ho        1 C63      0.226000
     37 H15         1.4610   -2.9760   -4.2310 ha        1 C63      0.208000
     38 H16        -1.6310   -3.2960   -0.8650 ho        1 C63      0.309000
     39 H17        -2.7360   -5.3240   -1.8960 h1        1 C63      0.082000
     40 H18        -0.5940   -6.3910   -2.4690 hc        1 C63      0.088333
     41 H19        -4.1960   -4.9620   -2.9500 h1        1 C63      0.082000
     42 H20        -1.7810   -7.4480   -0.5590 hc        1 C63      0.082000
     43 H21         0.9610   -6.3860   -1.5400 hc        1 C63      0.088333
     44 H22        -0.4280   -5.3580   -0.9840 hc        1 C63      0.088333
     45 H23        -0.3710   -8.4600   -1.0640 hc        1 C63      0.082000
     46 H25        -0.4760   -3.8520   -5.4620 h1        1 C63      0.128000
     47 H26        -0.0130   -2.2210   -6.2070 h1        1 C63      0.128000
     48 H27        -2.5260   -4.9920   -3.6940 h1        1 C63      0.082000
     49 H28        -2.5590   -2.3490   -6.8920 h1        1 C63      0.089333
     50 H29        -4.4210   -5.6380   -5.4680 hc        1 C63      0.009833
     51 H30        -2.7050   -3.8420   -5.8270 h1        1 C63      0.089333
     52 H31        -3.6670   -2.3110   -5.4300 h1        1 C63      0.089333
     53 H32        -3.6120   -7.0000   -4.6020 hc        1 C63      0.009833
     54 H33        -4.2740   -7.2450   -6.2690 hc        1 C63      0.009833
     55 H34        -2.4760   -5.7310   -7.2050 ha        1 C63      0.085000
     56 H35         0.1120   -5.5520   -7.0270 ha        1 C63      0.085000
     57 H36        -1.2860   -6.7110   -4.5100 ha        1 C63      0.047000
     58 H37         1.0230   -6.5220   -4.2130 hc        1 C63      0.009833
     59 H38         1.7770   -5.1360   -5.0960 hc        1 C63      0.009833
     60 H39         1.9380   -6.8050   -5.7490 hc        1 C63      0.009833
     61 O12         0.5390   -1.6130    0.9630 o         1 C63     -1.139000
     62 C18        -0.5280   -8.4940    1.6370 c1        1 C63     -0.139000
     63 C19        -0.8770   -9.4020    2.3350 c1        1 C63     -0.257000
     64 H24         1.0240   -7.3870    0.7680 hc        1 C63      0.102000
     65 H40        -0.4280   -6.4290    1.2820 hc        1 C63      0.102000
     66 H41        -2.8250   -5.0710    0.6000 ha        1 C63      0.001500
     67 H42        -1.1890  -10.2050    2.9490 ha        1 C63      0.212000
     68 H43        -2.2470   -5.3620    0.3990 ha        1 C63      0.001500
@<TRIPOS>BOND
     1    1    2 1   
     2    1    4 1   
     3    1    8 1   
     4    1   61 1   
     5    2   38 1   
     6    3    4 1   
     7    3   24 1   
     8    3   25 1   
     9    3   27 1   
    10    4    5 1   
    11    4   26 1   
    12    5   28 1   
    13    5   29 1   
    14    5   31 1   
    15    6    7 1   
    16    6   30 1   
    17    6   33 1   
    18    6   34 1   
    19    7   32 1   
    20    8   35 1   
    21    9   10 1   
    22   10   16 1   
    23   10   37 1   
    24   11   12 1   
    25   11   36 1   
    26   12   39 1   
    27   12   41 1   
    28   12   48 1   
    29   13   14 1   
    30   13   40 1   
    31   13   43 1   
    32   13   44 1   
    33   14   15 1   
    34   14   42 1   
    35   14   45 1   
    36   15   62 1   
    37   15   64 1   
    38   15   65 1   
    39   16   17 1   
    40   16   46 1   
    41   16   47 1   
    42   17   18 1   
    43   18   49 1   
    44   18   51 1   
    45   18   52 1   
    46   19   20 1   
    47   19   50 1   
    48   19   53 1   
    49   19   54 1   
    50   20   21 1   
    51   20   55 1   
    52   21   22 1   
    53   21   57 1   
    54   22   23 1   
    55   22   56 1   
    56   23   58 1   
    57   23   59 1   
    58   23   60 1   
    59   62   63 1   
    60   63   67 1   
    61   66   68 1   
@<TRIPOS>SUBSTRUCTURE
     1 C63         1 TEMP              0 ****  ****    0 ROOT
