@<TRIPOS>MOLECULE
molecule
   68    67     1     0     0
SMALL
bcc


@<TRIPOS>ATOM
      1 P5           0.0000     0.0000     0.0000 p5         1 C63       1.177600
      2 O11          1.4800     0.0000     0.0000 o          1 C63      -0.821000
      3 C6          -0.6070     0.0000     1.7200 c3         1 C63      -0.259600
      4 C7           0.0040     1.1820     2.4750 c3         1 C63      -0.043400
      5 C8          -0.5050     1.1820     3.9190 c3         1 C63      -0.080400
      6 C9           0.1060     2.3630     4.6750 c3         1 C63      -0.085400
      7 C10         -0.4030     2.3640     6.1180 c3         1 C63      -0.092100
      8 O4          -0.5370    -1.3140    -0.7580 os         1 C63      -0.602200
      9 C3          -0.1490    -1.6580    -2.0900 c3         1 C63       0.233400
     10 C2          -0.8390    -2.9600    -2.5030 c3         1 C63       0.140100
     11 O13         -0.3660    -4.0300    -1.6830 os         1 C63      -0.406600
     12 C14         -1.3240    -5.0690    -1.4730 c3         1 C63       0.137400
     13 C15         -0.7110    -6.1560    -0.5870 c3         1 C63      -0.081400
     14 C16         -1.7380    -7.2680    -0.3630 c3         1 C63      -0.081400
     15 C17         -1.1250    -8.3550     0.5230 c3         1 C63      -0.080400
     16 C1          -0.5240    -3.2610    -3.9690 c3         1 C63       0.108400
     17 O20         -1.2600    -4.4120    -4.3880 os         1 C63      -0.435600
     18 C21         -1.0350    -4.7820    -5.7490 c3         1 C63       0.140400
     19 C22         -1.8690    -6.0190    -6.0860 c3         1 C63      -0.082400
     20 C23         -1.6300    -6.4150    -7.5450 c3         1 C63      -0.081400
     21 C24         -2.4650    -7.6520    -7.8810 c3         1 C63      -0.080400
     22 C25         -2.2250    -8.0490    -9.3400 c3         1 C63      -0.084400
     23 C26         -3.0590    -9.2860    -9.6760 c3         1 C63      -0.092100
     24 H2          -0.3200    -0.9260     2.2040 hc         1 C63       0.040700
     25 H3          -1.6860     0.0890     1.7220 hc         1 C63       0.040700
     26 H4          -0.2820     2.1070     1.9910 hc         1 C63       0.055700
     27 H5           1.0840     1.0920     2.4730 hc         1 C63       0.055700
     28 H6          -1.5850     1.2710     3.9210 hc         1 C63       0.028700
     29 H7          -0.2190     0.2560     4.4040 hc         1 C63       0.028700
     30 H8           1.1850     2.2740     4.6720 hc         1 C63       0.039200
     31 H9          -0.1810     3.2890     4.1900 hc         1 C63       0.039200
     32 H10         -1.4830     2.4480     6.1200 hc         1 C63       0.022367
     33 H11         -0.1110     1.4410     6.6040 hc         1 C63       0.022367
     34 H12          0.0260     3.2040     6.6510 hc         1 C63       0.022367
     35 H13         -0.4410    -0.8640    -2.7670 h1         1 C63       0.040700
     36 H14          0.9250    -1.7900    -2.1300 h1         1 C63       0.040700
     37 H15         -1.9100    -2.8560    -2.3780 h1         1 C63       0.051700
     38 H16         -2.2010    -4.6590    -0.9880 h1         1 C63       0.027700
     39 H17         -1.6060    -5.4980    -2.4270 h1         1 C63       0.027700
     40 H18          0.1660    -6.5660    -1.0730 hc         1 C63       0.051200
     41 H19         -0.4290    -5.7270     0.3670 hc         1 C63       0.051200
     42 H20         -2.0200    -7.6970    -1.3170 hc         1 C63       0.038200
     43 H21         -2.6150    -6.8580     0.1230 hc         1 C63       0.038200
     44 H22         -0.2480    -8.7650     0.0380 hc         1 C63       0.042200
     45 H23         -0.8430    -7.9260     1.4770 hc         1 C63       0.042200
     46 H25         -0.8030    -2.4120    -4.5810 h1         1 C63       0.031700
     47 H26          0.5370    -3.4520    -4.0790 h1         1 C63       0.031700
     48 H27          0.0150    -5.0040    -5.8940 h1         1 C63       0.019700
     49 H28         -1.3240    -3.9640    -6.3980 h1         1 C63       0.019700
     50 H29         -2.9200    -5.7970    -5.9400 hc         1 C63       0.051200
     51 H30         -1.5800    -6.8370    -5.4380 hc         1 C63       0.051200
     52 H31         -1.9200    -5.5970    -8.1930 hc         1 C63       0.040200
     53 H32         -0.5800    -6.6370    -7.6910 hc         1 C63       0.040200
     54 H33         -3.5150    -7.4300    -7.7350 hc         1 C63       0.041700
     55 H34         -2.1750    -8.4700    -7.2320 hc         1 C63       0.041700
     56 H35         -2.5140    -7.2310    -9.9880 hc         1 C63       0.039200
     57 H36         -1.1740    -8.2710    -9.4850 hc         1 C63       0.039200
     58 H37         -2.7630   -10.1070    -9.0330 hc         1 C63       0.030367
     59 H38         -2.8960    -9.5610   -10.7110 hc         1 C63       0.030367
     60 H39         -4.1090    -9.0670    -9.5220 hc         1 C63       0.030367
     61 O12         -0.5360     1.3140    -0.7580 o          1 C63      -0.821000
     62 C18         -2.1510    -9.4690     0.7480 c3         1 C63      -0.084400
     63 C19         -1.5390   -10.5550     1.6340 c3         1 C63      -0.092100
     64 H24         -3.0280    -9.0590     1.2330 hc         1 C63       0.037200
     65 H40         -2.4330    -9.8970    -0.2060 hc         1 C63       0.037200
     66 H41         -2.2630   -11.3460     1.7880 hc         1 C63       0.029367
     67 H42         -1.2620   -10.1280     2.5900 hc         1 C63       0.029367
     68 H43         -0.6580   -10.9610     1.1510 hc         1 C63       0.029367
@<TRIPOS>BOND
     1    23    22 1
     2    22    21 1
     3    14    15 1
     4    14    13 1
     5    21    20 1
     6     7     6 1
     7    13    12 1
     8    20    19 1
     9    12    11 1
    10     6     5 1
    11    11    10 1
    12    19    18 1
    13    17    18 1
    14    17    16 1
    15     5     4 1
    16    10    16 1
    17    10     9 1
    18     4     3 1
    19     3     1 1
    20     9     8 1
    21     1     8 1
    22     1     2 1
    23     3    24 1
    24     3    25 1
    25     4    26 1
    26     4    27 1
    27     5    28 1
    28     5    29 1
    29     6    30 1
    30     6    31 1
    31     7    32 1
    32     7    33 1
    33     7    34 1
    34     9    35 1
    35     9    36 1
    36    10    37 1
    37    12    38 1
    38    12    39 1
    39    13    40 1
    40    13    41 1
    41    14    42 1
    42    14    43 1
    43    15    44 1
    44    15    45 1
    45    16    46 1
    46    16    47 1
    47    18    48 1
    48    18    49 1
    49    19    50 1
    50    19    51 1
    51    20    52 1
    52    20    53 1
    53    21    54 1
    54    21    55 1
    55    22    56 1
    56    22    57 1
    57    23    58 1
    58    23    59 1
    59    23    60 1
    60     1    61 1
    61    15    62 1
    62    62    63 1
    63    62    64 1
    64    62    65 1
    65    63    66 1
    66    63    67 1
    67    63    68 1
@<TRIPOS>SUBSTRUCTURE
     1 C63         1 TEMP              0 ****  ****    0 ROOT
