@<TRIPOS>MOLECULE
C64
   38    41     1     0     0
SMALL
bcc


@<TRIPOS>ATOM
      1 O            0.0000     0.0000     0.0000 o          1 C64      -0.613100
      2 S            0.1140    -3.9260     3.4700 ss         1 C64      -0.257300
      3 Br          -1.1220     0.4830    -6.4030 br         1 C64      -0.130100
      4 C1           0.6310     2.4790     2.8640 ca         1 C64      -0.090000
      5 N1           1.0140    -0.0010     2.4190 na         1 C64       0.370700
      6 C2           0.0320     0.8710    -2.4450 ca         1 C64      -0.112000
      7 N2           1.5980    -2.8830     1.7340 nc         1 C64      -0.608000
      8 C3          -0.0620     3.3540     3.6730 ca         1 C64      -0.082000
      9 N3          -0.3320    -0.7270     3.9920 nc         1 C64      -0.492100
     10 C4           1.1920     0.1120    -2.3770 ca         1 C64      -0.085400
     11 N4           1.8880     0.0010    -1.1670 ns         1 C64      -0.026100
     12 C5          -0.6530     0.9800    -3.6390 ca         1 C64      -0.063000
     13 C6           0.4850    -1.1040     3.0370 cd         1 C64       0.181800
     14 C7           1.0420    -4.9590     2.3850 cd         1 C64      -0.115400
     15 C8           0.7880    -2.5020     2.6820 cd         1 C64       0.484100
     16 C9          -1.0700     1.5330     4.8540 ca         1 C64      -0.033000
     17 C10          0.4800     1.1110     3.0410 ca         1 C64      -0.249200
     18 C11         -0.3780     0.6260     4.0450 ca         1 C64       0.065400
     19 C12          1.6620    -0.5360    -3.5110 ca         1 C64      -0.112000
     20 C13          1.2130     0.0000     0.0000 c          1 C64       0.546100
     21 C14         -0.9090     2.8750     4.6650 ca         1 C64      -0.120000
     22 C15          1.7470    -4.1730     1.5600 cc         1 C64       0.353200
     23 C16          0.9740    -0.4250    -4.7040 ca         1 C64      -0.063000
     24 C17          1.9660     0.0000     1.3060 c3         1 C64      -0.128700
     25 C18         -0.1820     0.3320    -4.7680 ca         1 C64       0.023100
     26 H1           1.2900     2.8590     2.0930 ha         1 C64       0.097000
     27 H2          -0.3360     1.3780    -1.5610 ha         1 C64       0.126000
     28 H3           0.0550     4.4220     3.5360 ha         1 C64       0.102000
     29 HN4          2.8880    -0.0400    -1.1670 hn         1 C64       0.168500
     30 H5          -1.5580     1.5720    -3.6920 ha         1 C64       0.118500
     31 H7           1.0420    -6.0420     2.3850 h4         1 C64       0.159000
     32 H9          -1.7340     1.1710     5.6300 ha         1 C64       0.110000
     33 H12          2.5680    -1.1290    -3.4610 ha         1 C64       0.126000
     34 H14         -1.4480     3.5740     5.2930 ha         1 C64       0.105000
     35 H15          2.3990    -4.5790     0.7970 h4         1 C64      -0.002900
     36 H16          1.3400    -0.9300    -5.5890 ha         1 C64       0.118500
     37 H17          2.5900    -0.8840     1.3630 h1         1 C64       0.063200
     38 H17A         2.5890     0.8850     1.3630 h1         1 C64       0.063200
@<TRIPOS>BOND
     1     1    20 2   
     2     2    14 1   
     3     2    15 1   
     4     3    25 1   
     5     4     8 ar  
     6     4    17 ar  
     7     4    26 1   
     8     5    13 1   
     9     5    17 1   
    10     5    24 1   
    11     6    10 ar  
    12     6    12 ar  
    13     6    27 1   
    14     7    15 2   
    15     7    22 1   
    16     8    21 ar  
    17     8    28 1   
    18     9    13 2   
    19     9    18 1   
    20    10    11 1   
    21    10    19 ar  
    22    11    20 1   
    23    11    29 1   
    24    12    25 ar  
    25    12    30 1   
    26    13    15 1   
    27    14    22 2   
    28    14    31 1   
    29    16    18 ar  
    30    16    21 ar  
    31    16    32 1   
    32    17    18 ar  
    33    19    23 ar  
    34    19    33 1   
    35    20    24 1   
    36    21    34 1   
    37    22    35 1   
    38    23    25 ar  
    39    23    36 1   
    40    24    37 1   
    41    24    38 1   
@<TRIPOS>SUBSTRUCTURE
     1 C64         1 TEMP              0 ****  ****    0 ROOT
