@<TRIPOS>MOLECULE
molecule
   33    34     1     0     0
SMALL
bcc


@<TRIPOS>ATOM
      1 CAA          0.0000     0.0000     0.0000 ca         1 C65      -0.141000
      2 CAB          1.3830     0.0000     0.0000 ca         1 C65      -0.102000
      3 CAC          2.0820     0.0000     1.1950 ca         1 C65      -0.141000
      4 CAD          1.4030     0.0000     2.3940 ca         1 C65      -0.089500
      5 CAE          0.0050     0.0000     2.4020 ca         1 C65       0.092400
      6 CAF         -0.6930     0.0000     1.1920 ca         1 C65      -0.089500
      7 NAG         -0.6740    -0.0010     3.5870 ne         1 C65      -0.216400
      8 NAH         -1.9640    -0.0010     3.5910 nf         1 C65      -0.228400
      9 CAI         -2.6440    -0.0010     4.7750 ca         1 C65       0.112400
     10 CAJ         -4.0430    -0.0010     4.7780 ca         1 C65      -0.098000
     11 CAK         -4.7230    -0.0010     5.9620 ca         1 C65      -0.117500
     12 CAL         -4.0200    -0.0020     7.1730 ca         1 C65      -0.062800
     13 CAM         -2.6200    -0.0020     7.1700 ca         1 C65      -0.117500
     14 CAN         -1.9410    -0.0070     5.9850 ca         1 C65      -0.098000
     15 CAO         -4.7520    -0.0010     8.4490 ce         1 C65      -0.019200
     16 CAP         -4.0740    -0.0010     9.6150 cf         1 C65      -0.246200
     17 CAQ         -4.8030    -0.0000    10.8860 c          1 C65       0.678300
     18 NAR         -4.1270    -0.0010    12.0500 ns         1 C65      -0.468400
     19 OAS         -6.0200    -0.0000    10.8890 o          1 C65      -0.582100
     20 OAT         -4.8310    -0.0000    13.2790 oh         1 C65      -0.361100
     21 HAA         -0.5400     0.0000    -0.9390 ha         1 C65       0.135500
     22 HAB          1.9230     0.0000    -0.9400 ha         1 C65       0.132000
     23 HAC          3.1650     0.0000     1.1880 ha         1 C65       0.135500
     24 HAD          1.9510     0.0000     3.3290 ha         1 C65       0.150000
     25 HAF         -1.7770     0.0000     1.1900 ha         1 C65       0.150000
     26 HAJ         -4.5870    -0.0000     3.8410 ha         1 C65       0.152500
     27 HAK         -5.8060    -0.0010     5.9650 ha         1 C65       0.138500
     28 HAM         -2.0760    -0.0050     8.1060 ha         1 C65       0.138500
     29 HAN         -0.8580    -0.0070     5.9820 ha         1 C65       0.152500
     30 HAO         -5.8350    -0.0000     8.4510 ha         1 C65       0.163000
     31 HAP         -2.9910    -0.0020     9.6120 ha         1 C65       0.129000
     32 HNAR        -3.1260    -0.0020    12.0480 hn         1 C65       0.319500
     33 HOAT        -4.2160    -0.0000    13.9940 ho         1 C65       0.398000
@<TRIPOS>BOND
     1     1     2 ar
     2     1     6 ar
     3     2     3 ar
     4     3     4 ar
     5     4     5 ar
     6     5     6 ar
     7     5     7 1
     8     7     8 2
     9     8     9 1
    10     9    10 ar
    11     9    14 ar
    12    10    11 ar
    13    11    12 ar
    14    12    13 ar
    15    12    15 1
    16    13    14 ar
    17    15    16 2
    18    16    17 1
    19    17    18 1
    20    17    19 2
    21    18    20 1
    22     1    21 1
    23     2    22 1
    24     3    23 1
    25     4    24 1
    26     6    25 1
    27    10    26 1
    28    11    27 1
    29    13    28 1
    30    14    29 1
    31    15    30 1
    32    16    31 1
    33    18    32 1
    34    20    33 1
@<TRIPOS>SUBSTRUCTURE
     1 C65         1 TEMP              0 ****  ****    0 ROOT
