@<TRIPOS>MOLECULE
C65
   33    36     1     0     0
SMALL
bcc


@<TRIPOS>ATOM
      1 CAA          0.0000     0.0000     0.0000 ca         1 C65      -0.110500
      2 CAB          1.3830     0.0000     0.0000 ca         1 C65      -0.081000
      3 CAC          2.0820     0.0000     1.1950 ca         1 C65      -0.110500
      4 CAD          1.4030     0.0000     2.3940 ca         1 C65      -0.071000
      5 CAE          0.0050     0.0000     2.4020 ca         1 C65      -0.076000
      6 CAF         -0.6930     0.0000     1.1920 ca         1 C65      -0.071000
      7 NAG         -0.6740    -0.0010     3.5870 n2         1 C65      -0.041000
      8 NAH         -1.9640    -0.0010     3.5910 n2         1 C65      -0.027000
      9 CAI         -2.6440    -0.0010     4.7750 c2         1 C65      -0.105000
     10 CAJ         -4.0430    -0.0010     4.7780 c2         1 C65      -0.041000
     11 CAK         -4.7230    -0.0010     5.9620 c2         1 C65      -0.155000
     12 CAL         -4.0200    -0.0020     7.1730 c3         1 C65       0.001000
     13 CAM         -2.6200    -0.0020     7.1700 c2         1 C65      -0.155000
     14 CAN         -1.9410    -0.0070     5.9850 c2         1 C65      -0.041000
     15 CAO         -4.7520    -0.0010     8.4490 c2         1 C65       0.000000
     16 CAP         -4.0740    -0.0010     9.6150 c2         1 C65      -0.188000
     17 CAQ         -4.8030    -0.0000    10.8860 c3         1 C65       0.278000
     18 NAR         -4.1270    -0.0010    12.0500 n7         1 C65       0.092000
     19 OAS         -6.0200    -0.0000    10.8890 o          1 C65      -0.399000
     20 OAT         -4.8310    -0.0000    13.2790 oh         1 C65      -0.240000
     21 HAA         -0.5400    -0.0000    -0.9390 ha         1 C65       0.105500
     22 HAB          1.9230     0.0000    -0.9400 ha         1 C65       0.102000
     23 HAC          3.1650    -0.0000     1.1880 ha         1 C65       0.105500
     24 HAD          1.9510     0.0000     3.3290 ha         1 C65       0.118500
     25 HAF         -1.7770     0.0000     1.1900 ha         1 C65       0.118500
     26 HAJ         -4.5870    -0.0000     3.8410 ha         1 C65       0.122000
     27 HAK         -5.8060    -0.0010     5.9650 ha         1 C65       0.123000
     28 HAM         -2.0760    -0.0050     8.1060 ha         1 C65       0.123000
     29 HAN         -0.8580    -0.0070     5.9820 ha         1 C65       0.122000
     30 HAO         -4.2880    -0.8760     8.0100 DU         1 C65       0.133000
     31 HAP         -4.5390     0.8740    10.0540 DU         1 C65       0.097000
     32 HNAR        -3.1260    -0.0080    12.0480 hn         1 C65       0.076000
     33 HOAT        -4.2260    -0.1440    13.9880 ho         1 C65       0.194000
@<TRIPOS>BOND
     1     1     2 1   
     2     1     6 1   
     3     1    21 1   
     4     2     3 1   
     5     2    22 1   
     6     3     4 1   
     7     3    23 1   
     8     4     5 1   
     9     4    24 1   
    10     5     6 1   
    11     5     7 1   
    12     6    25 1   
    13     7     8 1   
    14     8     9 1   
    15     9    10 1   
    16     9    14 1   
    17    10    11 1   
    18    10    26 1   
    19    11    12 1   
    20    11    27 1   
    21    12    13 1   
    22    12    15 1   
    23    12    30 1   
    24    13    14 1   
    25    13    28 1   
    26    14    29 1   
    27    15    16 1   
    28    15    30 1   
    29    16    17 1   
    30    16    31 1   
    31    17    18 1   
    32    17    19 1   
    33    17    31 1   
    34    18    20 1   
    35    18    32 1   
    36    20    33 1   
@<TRIPOS>SUBSTRUCTURE
     1 C65         1 TEMP              0 ****  ****    0 ROOT
