@<TRIPOS>MOLECULE
C67
   34    33     1     0     0
SMALL
bcc


@<TRIPOS>ATOM
      1 N            0.0000     0.0000     0.0000 nz         1 C67       0.038400
      2 CA           1.4690     0.0000     0.0000 c3         1 C67      -0.110500
      3 C            1.9720     0.0000     1.4200 c          1 C67       0.951600
      4 O            3.2260    -0.3980     1.6890 o          1 C67      -0.816300
      5 CB           1.9790     1.2490    -0.7210 c3         1 C67      -0.191400
      6 CG           1.5740     1.1890    -2.1950 c3         1 C67       0.002600
      7 CD           2.0850     2.4380    -2.9160 c3         1 C67       0.190800
      8 NE           1.6970     2.3800    -4.3270 nu         1 C67      -0.588200
      9 CZ           2.0470     3.4010    -5.1800 c2         1 C67       0.560100
     10 NH1          2.7250     4.4200    -4.7310 n2         1 C67      -0.863100
     11 NH2          1.6830     3.3460    -6.5050 nu         1 C67      -0.481200
     12 C01          1.5330     4.1280    -8.8170 c3         1 C67      -0.149400
     13 C02          2.0570     4.4330    -7.4120 c3         1 C67       0.182800
     14 C03          1.9170     5.2460    -9.7510 c          1 C67       0.983600
     15 O02          1.5620     5.1940   -11.0440 o          1 C67      -0.896300
     16 O03          2.5450     6.1920    -9.3350 o          1 C67      -0.896300
     17 H1          -0.3340     0.9390     0.0900 hn         1 C67       0.217133
     18 H2          -0.3340    -0.5470     0.7680 hn         1 C67       0.217133
     19 H4           1.8300    -0.8850    -0.5110 hx         1 C67       0.063700
     20 H6           2.3650     0.2720    -0.9850 hc         1 C67       0.097700
     21 H7           2.8720     1.7770    -0.4090 hc         1 C67       0.097700
     22 H8           2.0050     0.3060    -2.6520 hc         1 C67      -0.004800
     23 H9           0.4940     1.1440    -2.2710 hc         1 C67      -0.004800
     24 H10          1.6540     3.3200    -2.4590 h1         1 C67       0.024200
     25 H11          3.1650     2.4830    -2.8400 h1         1 C67       0.024200
     26 H12          1.1750     1.5980    -4.6710 hn         1 C67       0.278800
     27 H13          2.9900     4.4590    -3.7670 hn         1 C67       0.315400
     28 H14          1.1730     2.5580    -6.8510 hn         1 C67       0.271800
     29 H15          0.4540     4.0360    -8.7880 hc         1 C67       0.003200
     30 H16          1.9660     3.1990    -9.1690 hc         1 C67       0.003200
     31 H17          3.1360     4.5250    -7.4410 h1         1 C67       0.038700
     32 H18          1.6250     5.3620    -7.0600 h1         1 C67       0.038700
     33 O1           1.2470     0.3570     2.3180 o          1 C67      -0.816300
     34 HN3         -0.3340    -0.3830    -0.8620 hn         1 C67       0.217133
@<TRIPOS>BOND
     1     1     2 1   
     2     1    17 1   
     3     1    18 1   
     4     1    34 1   
     5     2     3 1   
     6     2     5 1   
     7     2    19 1   
     8     3     4 1   
     9     3    33 1   
    10     5     6 1   
    11     5    20 1   
    12     5    21 1   
    13     6     7 1   
    14     6    22 1   
    15     6    23 1   
    16     7     8 1   
    17     7    24 1   
    18     7    25 1   
    19     8     9 1   
    20     8    26 1   
    21     9    10 2   
    22     9    11 1   
    23    10    27 1   
    24    11    13 1   
    25    11    28 1   
    26    12    13 1   
    27    12    14 1   
    28    12    29 1   
    29    12    30 1   
    30    13    31 1   
    31    13    32 1   
    32    14    15 1   
    33    14    16 1   
@<TRIPOS>SUBSTRUCTURE
     1 C67         1 TEMP              0 ****  ****    0 ROOT
