@<TRIPOS>MOLECULE
molecule
   34    33     1     0     0
SMALL
bcc


@<TRIPOS>ATOM
      1 N            0.0000     0.0000     0.0000 nz         1 C67      -0.802600
      2 CA           1.4690     0.0000     0.0000 c3         1 C67       0.041500
      3 C            1.9720     0.0000     1.4200 c          1 C67       0.868600
      4 O            3.2260    -0.3980     1.6890 o          1 C67      -0.774800
      5 CB           1.9790     1.2490    -0.7210 c3         1 C67      -0.216400
      6 CG           1.5740     1.1890    -2.1950 c3         1 C67      -0.087400
      7 CD           2.0850     2.4380    -2.9160 c3         1 C67       0.274800
      8 NE           1.6970     2.3800    -4.3270 nu         1 C67      -0.915200
      9 CZ           2.0470     3.4010    -5.1800 c2         1 C67       0.853100
     10 NH1          2.7250     4.4200    -4.7310 n2         1 C67      -0.993100
     11 NH2          1.6830     3.3460    -6.5050 nu         1 C67      -0.941200
     12 C01          1.5330     4.1280    -8.8170 c3         1 C67      -0.197400
     13 C02          2.0570     4.4330    -7.4120 c3         1 C67       0.244800
     14 C03          1.9170     5.2460    -9.7510 c          1 C67       0.894600
     15 O02          1.5620     5.1940   -11.0440 o          1 C67      -0.846300
     16 O03          2.5450     6.1920    -9.3350 o          1 C67      -0.846300
     17 H1          -0.3340     0.9390     0.0900 hn         1 C67       0.437467
     18 H2          -0.3340    -0.3920    -0.8580 hn         1 C67       0.437467
     19 H4           1.8300    -0.8850    -0.5110 hx         1 C67       0.077700
     20 H6           2.3650     0.2720    -0.9850 hc         1 C67       0.123700
     21 H7           2.8720     1.7770    -0.4090 hc         1 C67       0.123700
     22 H8           0.4940     1.1440    -2.2710 hc         1 C67       0.020700
     23 H9           2.0050     0.3060    -2.6520 hc         1 C67       0.020700
     24 H10          1.6540     3.3200    -2.4590 h1         1 C67       0.061700
     25 H11          3.1650     2.4830    -2.8400 h1         1 C67       0.061700
     26 H12          1.1750     1.5980    -4.6710 hn         1 C67       0.420800
     27 H13          2.9800     5.1630    -5.3510 hn         1 C67       0.419400
     28 H14          1.1520     2.5690    -6.8460 hn         1 C67       0.408800
     29 H15          1.9660     3.1990    -9.1690 hc         1 C67       0.033200
     30 H16          0.4540     4.0360    -8.7880 hc         1 C67       0.033200
     31 H17          1.6250     5.3620    -7.0600 h1         1 C67       0.051700
     32 H18          3.1360     4.5250    -7.4410 h1         1 C67       0.051700
     33 O1           1.2470     0.3570     2.3180 o          1 C67      -0.774800
     34 HN3         -0.3340    -0.5480     0.7680 hn         1 C67       0.437467
@<TRIPOS>BOND
     1     1     2 1
     2    16    14 1
     3    14    15 1
     4    14    12 1
     5    12    13 1
     6     2     3 1
     7     2     5 1
     8     6     5 1
     9     6     7 1
    10    13    11 1
    11     3     4 1
    12     8     7 1
    13     8     9 1
    14    11     9 1
    15     9    10 2
    16     1    17 1
    17     1    18 1
    18     2    19 1
    19     5    20 1
    20     5    21 1
    21     6    22 1
    22     6    23 1
    23     7    24 1
    24     7    25 1
    25     8    26 1
    26    10    27 1
    27    11    28 1
    28    12    29 1
    29    12    30 1
    30    13    31 1
    31    13    32 1
    32     3    33 1
    33    34     1 1
@<TRIPOS>SUBSTRUCTURE
     1 C67         1 TEMP              0 ****  ****    0 ROOT
