@<TRIPOS>MOLECULE
molecule
   37    36     1     0     0
SMALL
bcc


@<TRIPOS>ATOM
      1 OE1          0.0000     0.0000     0.0000 o          1 C68      -0.887800
      2 CD           1.3420     0.0000     0.0000 c          1 C68       0.892600
      3 OE2          1.9470     0.0000     1.0460 o          1 C68      -0.887800
      4 CG           2.0950     0.0000    -1.3060 c3         1 C68      -0.185400
      5 CB           3.5990     0.0000    -1.0280 c3         1 C68      -0.058400
      6 CA           4.3640    -0.0000    -2.3530 c3         1 C68       0.023700
      7 C            5.8410     0.1240    -2.0810 c          1 C68       0.892600
      8 OXT          6.3160     1.1990    -1.4320 o          1 C68      -0.875300
      9 O            6.5970    -0.7440    -2.4470 o          1 C68      -0.875300
     10 N            4.1010    -1.2510    -3.0680 ns         1 C68      -0.534900
     11 CAR          4.2220    -1.3000    -4.4090 c          1 C68       0.761100
     12 OAF          4.5470    -0.3040    -5.0260 o          1 C68      -0.643000
     13 OAN          3.9810    -2.4500    -5.0650 os         1 C68      -0.444900
     14 CAU          4.1290    -2.4270    -6.5100 c3         1 C68       0.064100
     15 CAQ          2.8130    -2.0570    -7.1450 c          1 C68       0.886600
     16 OAI          1.8490    -1.8340    -6.4510 o          1 C68      -0.853800
     17 OAE          2.7120    -1.9740    -8.4810 o          1 C68      -0.853800
     18 CAL          4.5590    -3.8110    -7.0000 c3         1 C68      -0.056400
     19 CAS          5.9350    -4.1530    -6.4220 c3         1 C68      -0.083700
     20 CAB          6.3000    -5.5910    -6.7900 c3         1 C68      -0.086100
     21 CAA          6.9810    -3.1970    -6.9980 c3         1 C68      -0.086100
     22 H2           1.8320     0.8850    -1.8730 hc         1 C68       0.035200
     23 H3           1.8330    -0.8840    -1.8730 hc         1 C68       0.035200
     24 H4           3.8610     0.8850    -0.4600 hc         1 C68       0.049700
     25 H5           3.8610    -0.8840    -0.4600 hc         1 C68       0.049700
     26 H6           4.0370     0.8370    -2.9580 h1         1 C68       0.069700
     27 H8           3.8580    -2.0770    -2.5580 hn         1 C68       0.300500
     28 H9           4.8810    -1.6970    -6.7850 h1         1 C68       0.066700
     29 H11          3.8370    -4.5500    -6.6730 hc         1 C68       0.043200
     30 H12          4.6120    -3.8110    -8.0820 hc         1 C68       0.043200
     31 H13          5.9080    -4.0510    -5.3440 hc         1 C68       0.077700
     32 H14          6.3700    -5.6820    -7.8670 hc         1 C68       0.020367
     33 H15          7.2530    -5.8470    -6.3440 hc         1 C68       0.020367
     34 H16          5.5360    -6.2640    -6.4190 hc         1 C68       0.020367
     35 H17          6.9740    -2.2720    -6.4350 hc         1 C68       0.020367
     36 H18          6.7490    -2.9900    -8.0360 hc         1 C68       0.020367
     37 H19          7.9620    -3.6520    -6.9320 hc         1 C68       0.020367
@<TRIPOS>BOND
     1     9     7 1
     2     3     2 1
     3     8     7 1
     4     7     6 1
     5     2     1 1
     6     2     4 1
     7     4     5 1
     8     5     6 1
     9     6    10 1
    10    12    11 2
    11    10    11 1
    12    20    19 1
    13    11    13 1
    14    18    19 1
    15    18    14 1
    16    19    21 1
    17    13    14 1
    18    14    15 1
    19    15    16 1
    20    15    17 1
    21     4    22 1
    22     4    23 1
    23     5    24 1
    24     5    25 1
    25     6    26 1
    26    10    27 1
    27    14    28 1
    28    18    29 1
    29    18    30 1
    30    19    31 1
    31    20    32 1
    32    20    33 1
    33    20    34 1
    34    21    35 1
    35    21    36 1
    36    21    37 1
@<TRIPOS>SUBSTRUCTURE
     1 C68         1 TEMP              0 ****  ****    0 ROOT
