@<TRIPOS>MOLECULE
molecule
   39    41     1     0     0
SMALL
bcc


@<TRIPOS>ATOM
      1 CAB          0.0000     0.0000     0.0000 c3         1 C69       0.124700
      2 OAA          1.4290     0.0000     0.0000 os         1 C69      -0.321900
      3 CAD          2.0470     0.0000     1.2110 ca         1 C69       0.188100
      4 CAC          1.2940    -0.0050     2.3730 ca         1 C69      -0.252000
      5 CAN          1.9260    -0.0040     3.6080 ca         1 C69       0.189100
      6 OAM          1.1870    -0.0100     4.7500 os         1 C69      -0.325900
      7 CAL          1.9030    -0.0100     5.9860 c3         1 C69       0.128700
      8 CAO          3.3120     0.0000     3.6800 ca         1 C69      -0.255000
      9 CAP          4.0660     0.0050     2.5210 ca         1 C69      -0.036000
     10 CAE          3.4380     0.0000     1.2850 ca         1 C69      -0.020400
     11 NAF          4.2040    -0.0010     0.1100 n          1 C69      -0.382000
     12 CAQ          4.6860     1.1300    -0.3940 c          1 C69       0.698500
     13 OAW          4.4830     2.2030     0.1340 o          1 C69      -0.606500
     14 CAR          5.5060     1.0070    -1.6630 c3         1 C69      -0.050300
     15 SAS          5.8950    -0.7890    -1.7020 ss         1 C69      -0.345200
     16 CAG          4.5010    -1.2530    -0.6010 c3         1 C69       0.275100
     17 CAH          4.9210    -2.3310     0.3640 ca         1 C69      -0.096300
     18 CAI          4.3240    -3.5760     0.3130 ca         1 C69      -0.079000
     19 CAJ          4.7100    -4.5660     1.1980 ca         1 C69      -0.021900
     20 BrA          3.8930    -6.2690     1.1280 br         1 C69      -0.090100
     21 CAV          5.6940    -4.3080     2.1360 ca         1 C69      -0.091000
     22 CAU          6.2910    -3.0630     2.1860 ca         1 C69      -0.132000
     23 CAT          5.9090    -2.0760     1.2980 ca         1 C69      -0.084000
     24 H1          -0.3610     0.8870     0.5070 h1         1 C69       0.045700
     25 H2          -0.3610    -0.0040    -1.0210 h1         1 C69       0.045700
     26 H3          -0.3610    -0.8820     0.5140 h1         1 C69       0.045700
     27 H4           0.2120     0.0240     2.3180 ha         1 C69       0.154000
     28 H5           2.5220     0.8770     6.0450 h1         1 C69       0.043700
     29 H6           2.5300    -0.8920     6.0400 h1         1 C69       0.043700
     30 H7           1.2010    -0.0160     6.8110 h1         1 C69       0.043700
     31 H8           3.8030     0.0020     4.6460 ha         1 C69       0.141000
     32 H9           5.1470     0.0070     2.5790 ha         1 C69       0.144000
     33 H10          6.4130     1.5950    -1.5910 h1         1 C69       0.103700
     34 H11          4.9190     1.2920    -2.5280 h1         1 C69       0.103700
     35 H12          3.6450    -1.5690    -1.1860 h2         1 C69       0.093700
     36 H13          3.5750    -3.7870    -0.4420 ha         1 C69       0.147000
     37 H14          5.9960    -5.0820     2.8310 ha         1 C69       0.145000
     38 H15          7.0640    -2.8620     2.9190 ha         1 C69       0.139000
     39 H16          6.3770    -1.1000     1.3380 ha         1 C69       0.146000
@<TRIPOS>BOND
     1     1     2 1
     2     2     3 1
     3    15    16 1
     4    15    14 1
     5     3    10 ar
     6     3     4 ar
     7    16    11 1
     8    16    17 1
     9    13    12 2
    10     7     6 1
    11    14    12 1
    12    12    11 1
    13    11    10 1
    14    10     9 ar
    15     4     5 ar
    16     9     8 ar
    17     5     8 ar
    18     5     6 1
    19    23    17 ar
    20    23    22 ar
    21    17    18 ar
    22    22    21 ar
    23    18    19 ar
    24    21    19 ar
    25    19    20 1
    26     1    24 1
    27     1    25 1
    28     1    26 1
    29     4    27 1
    30     7    28 1
    31     7    29 1
    32     7    30 1
    33     8    31 1
    34     9    32 1
    35    14    33 1
    36    14    34 1
    37    16    35 1
    38    18    36 1
    39    21    37 1
    40    22    38 1
    41    23    39 1
@<TRIPOS>SUBSTRUCTURE
     1 C69         1 TEMP              0 ****  ****    0 ROOT
