@<TRIPOS>MOLECULE
C69
   39    41     1     0     0
SMALL
bcc


@<TRIPOS>ATOM
      1 CAB          0.0000     0.0000     0.0000 c3         1 C69       0.243700
      2 OAA          1.4290     0.0000     0.0000 os         1 C69      -0.308900
      3 CAD          2.0470     0.0000     1.2110 ca         1 C69       0.208100
      4 CAC          1.2940    -0.0050     2.3730 ca         1 C69      -0.252000
      5 CAN          1.9260    -0.0040     3.6080 ca         1 C69       0.211100
      6 OAM          1.1870    -0.0100     4.7500 os         1 C69      -0.306900
      7 CAL          1.9030    -0.0100     5.9860 c3         1 C69       0.244700
      8 CAO          3.3120     0.0000     3.6800 ca         1 C69      -0.249000
      9 CAP          4.0660     0.0050     2.5210 ca         1 C69       0.002000
     10 CAE          3.4380     0.0000     1.2850 ca         1 C69      -0.165400
     11 NAF          4.2040    -0.0010     0.1100 n          1 C69       0.006000
     12 CAQ          4.6860     1.1300    -0.3940 c          1 C69       0.606500
     13 OAW          4.4830     2.2030     0.1340 o          1 C69      -0.648500
     14 CAR          5.5060     1.0070    -1.6630 c3         1 C69       0.023700
     15 SAS          5.8950    -0.7890    -1.7020 ss         1 C69      -0.391200
     16 CAG          4.5010    -1.2530    -0.6010 c3         1 C69       0.200100
     17 CAH          4.9210    -2.3310     0.3640 ca         1 C69      -0.099300
     18 CAI          4.3240    -3.5760     0.3130 ca         1 C69      -0.057000
     19 CAJ          4.7100    -4.5660     1.1980 ca         1 C69       0.031100
     20 BrA          3.8930    -6.2690     1.1280 br         1 C69      -0.123100
     21 CAV          5.6940    -4.3080     2.1360 ca         1 C69      -0.070000
     22 CAU          6.2910    -3.0630     2.1860 ca         1 C69      -0.097000
     23 CAT          5.9090    -2.0760     1.2980 ca         1 C69      -0.070000
     24 H1          -0.3610     0.8870     0.5070 h1         1 C69       0.001367
     25 H2          -0.3610    -0.0040    -1.0210 h1         1 C69       0.001367
     26 H3          -0.3610    -0.8820     0.5140 h1         1 C69       0.001367
     27 H4           0.2120     0.0240     2.3180 ha         1 C69       0.138000
     28 H5           2.5220     0.8770     6.0450 h1         1 C69      -0.000633
     29 H6           2.5300    -0.8920     6.0400 h1         1 C69      -0.000633
     30 H7           1.2010    -0.0160     6.8110 h1         1 C69      -0.000633
     31 H8           3.8030     0.0020     4.6460 ha         1 C69       0.126000
     32 H9           5.1470     0.0070     2.5790 ha         1 C69       0.114000
     33 H10          6.4130     1.5950    -1.5910 h1         1 C69       0.072700
     34 H11          4.9190     1.2920    -2.5280 h1         1 C69       0.072700
     35 H12          3.6450    -1.5690    -1.1860 h2         1 C69       0.067700
     36 H13          3.5750    -3.7870    -0.4420 ha         1 C69       0.121000
     37 H14          5.9960    -5.0820     2.8310 ha         1 C69       0.117000
     38 H15          7.0640    -2.8620     2.9190 ha         1 C69       0.110000
     39 H16          6.3770    -1.1000     1.3380 ha         1 C69       0.121000
@<TRIPOS>BOND
     1     1     2 1   
     2     1    24 1   
     3     1    25 1   
     4     1    26 1   
     5     2     3 1   
     6     3     4 ar  
     7     3    10 ar  
     8     4     5 ar  
     9     4    27 1   
    10     5     6 1   
    11     5     8 ar  
    12     6     7 1   
    13     7    28 1   
    14     7    29 1   
    15     7    30 1   
    16     8     9 ar  
    17     8    31 1   
    18     9    10 ar  
    19     9    32 1   
    20    10    11 1   
    21    11    12 1   
    22    11    16 1   
    23    12    13 2   
    24    12    14 1   
    25    14    15 1   
    26    14    33 1   
    27    14    34 1   
    28    15    16 1   
    29    16    17 1   
    30    16    35 1   
    31    17    18 ar  
    32    17    23 ar  
    33    18    19 ar  
    34    18    36 1   
    35    19    20 1   
    36    19    21 ar  
    37    21    22 ar  
    38    21    37 1   
    39    22    23 ar  
    40    22    38 1   
    41    23    39 1   
@<TRIPOS>SUBSTRUCTURE
     1 C69         1 TEMP              0 ****  ****    0 ROOT
