@<TRIPOS>MOLECULE
molecule
   74    77     1     0     0
SMALL
bcc


@<TRIPOS>ATOM
      1 C1           0.0000     0.0000     0.0000 ca         1 C6A      -0.183000
      2 C2           1.3820     0.0000     0.0000 ca         1 C6A      -0.027300
      3 C3           2.0750     0.0000     1.1960 ca         1 C6A      -0.183000
      4 C4           1.3840    -0.0000     2.3960 ca         1 C6A       0.159400
      5 C5           0.0000     0.0010     2.3970 ca         1 C6A      -0.217000
      6 C6          -0.6920     0.0060     1.1990 ca         1 C6A       0.159400
      7 F7          -2.0430     0.0070     1.1990 f          1 C6A      -0.135400
      8 F8           2.0610     0.0000     3.5650 f          1 C6A      -0.135400
      9 C9           2.1360    -0.0010    -1.3060 c3         1 C6A      -0.060100
     10 C10          2.3900     1.4420    -1.7490 c3         1 C6A       0.119700
     11 C11          3.2610     1.4440    -3.0060 c3         1 C6A       0.122100
     12 C12          3.5160     2.8850    -3.4480 c3         1 C6A       0.141800
     13 N13          4.2500     2.8850    -4.7210 n7         1 C6A      -0.814200
     14 C14          4.5120     4.2560    -5.1790 c3         1 C6A       0.215800
     15 C15          3.3170     4.7690    -5.9400 ca         1 C6A      -0.143300
     16 C16          3.3110     4.8220    -7.3230 ca         1 C6A       0.160100
     17 O17          4.3800     4.4220    -8.0590 os         1 C6A      -0.332900
     18 C18          5.3630     3.6060    -7.4200 c3         1 C6A       0.186100
     19 C19          5.7440     4.2630    -6.0880 c3         1 C6A      -0.115400
     20 C20          2.2060     5.1930    -5.2300 ca         1 C6A      -0.089000
     21 C21          1.0920     5.6670    -5.8940 ca         1 C6A      -0.118300
     22 C22          1.0830     5.7180    -7.2770 ca         1 C6A      -0.092000
     23 C23          2.1870     5.2980    -7.9900 ca         1 C6A      -0.157000
     24 C24         -0.1130     6.1270    -5.1140 c3         1 C6A      -0.019100
     25 C25          0.0200     7.6190    -4.8050 c3         1 C6A      -0.067000
     26 C26          0.1110     8.4050    -6.1130 c3         1 C6A      -0.082100
     27 C27         -1.2030     8.0860    -4.0130 c3         1 C6A      -0.082100
     28 C28          1.2850     7.8570    -3.9760 c3         1 C6A      -0.082100
     29 C29          6.6000     3.4950    -8.3130 cx         1 C6A      -0.150700
     30 C30          6.6590     4.3880    -9.5540 cx         1 C6A      -0.126900
     31 C31          6.4160     2.8850    -9.7040 cx         1 C6A      -0.126900
     32 O32          4.5070     0.8040    -2.7230 oh         1 C6A      -0.615800
     33 N33          1.1120     2.0970    -2.0380 ns         1 C6A      -0.584900
     34 C34          0.3030     1.6010    -2.9940 c          1 C6A       0.659100
     35 C35         -1.0120     2.2740    -3.2940 c3         1 C6A      -0.168100
     36 O36          0.6330     0.6130    -3.6160 o          1 C6A      -0.616100
     37 H1          -0.5420     0.0020    -0.9380 ha         1 C6A       0.153000
     38 H3           3.1580    -0.0000     1.1940 ha         1 C6A       0.153000
     39 H5          -0.5410     0.0030     3.3350 ha         1 C6A       0.159000
     40 H9           3.0820    -0.5110    -1.1760 hc         1 C6A       0.082200
     41 H9A          1.5500    -0.5130    -2.0600 hc         1 C6A       0.082200
     42 H10          2.8990     1.9780    -0.9570 h1         1 C6A       0.069700
     43 H11          2.7520     0.9080    -3.7980 h1         1 C6A       0.091700
     44 H12          2.5690     3.3960    -3.5770 h1         1 C6A       0.042200
     45 H12A         4.1020     3.3960    -2.6940 h1         1 C6A       0.042200
     46 HN13         5.1180     2.4000    -4.6060 hn         1 C6A       0.359800
     47 H14          4.6950     4.8970    -4.3240 h1         1 C6A       0.038700
     48 H18          4.9520     2.6210    -7.2350 h1         1 C6A       0.071700
     49 H19          6.5310     3.6830    -5.6210 hc         1 C6A       0.062200
     50 H19A         6.0410     5.2880    -6.2720 hc         1 C6A       0.062200
     51 H20          2.2120     5.1540    -4.1470 ha         1 C6A       0.126000
     52 H22          0.2090     6.0890    -7.7990 ha         1 C6A       0.134000
     53 H23          2.1780     5.3380    -9.0720 ha         1 C6A       0.143000
     54 H24         -1.0080     5.9580    -5.7000 hc         1 C6A       0.044200
     55 H24A        -0.1770     5.5700    -4.1870 hc         1 C6A       0.044200
     56 H26         -0.0600     9.4570    -5.9150 hc         1 C6A       0.035033
     57 H26A         1.0960     8.2760    -6.5450 hc         1 C6A       0.035033
     58 H26B        -0.6380     8.0420    -6.8060 hc         1 C6A       0.035033
     59 H27         -1.1310     9.1510    -3.8310 hc         1 C6A       0.035033
     60 H27A        -2.1020     7.8760    -4.5800 hc         1 C6A       0.035033
     61 H27B        -1.2430     7.5600    -3.0670 hc         1 C6A       0.035033
     62 H28          1.2690     8.8640    -3.5760 hc         1 C6A       0.035033
     63 H28A         2.1580     7.7320    -4.6050 hc         1 C6A       0.035033
     64 H28B         1.3220     7.1450    -3.1610 hc         1 C6A       0.035033
     65 H29          7.5600     3.2940    -7.8530 hc         1 C6A       0.088700
     66 H30          7.6470     4.7330    -9.8360 hc         1 C6A       0.079450
     67 H30A         5.7940     5.0200    -9.7170 hc         1 C6A       0.079450
     68 H31          7.2560     2.3110   -10.0770 hc         1 C6A       0.079450
     69 H31A         5.4030     2.5990    -9.9590 hc         1 C6A       0.079450
     70 HO32         4.6560     0.1150    -3.3490 ho         1 C6A       0.412000
     71 HN33         0.8450     2.9190    -1.5340 hn         1 C6A       0.319500
     72 H35         -1.0450     2.5520    -4.3400 hc         1 C6A       0.062367
     73 H35A        -1.1110     3.1620    -2.6810 hc         1 C6A       0.062367
     74 H35B        -1.8250     1.5920    -3.0760 hc         1 C6A       0.062367
@<TRIPOS>BOND
     1     6     1 ar
     2     1     2 ar
     3     1    37 1
     4     2     9 1
     5     2     3 ar
     6     4     3 ar
     7     3    38 1
     8     5     4 ar
     9     4     8 1
    10     6     5 ar
    11     5    39 1
    12     7     6 1
    13    10     9 1
    14     9    40 1
    15     9    41 1
    16    33    10 1
    17    10    11 1
    18    10    42 1
    19    12    11 1
    20    11    32 1
    21    11    43 1
    22    12    13 1
    23    12    44 1
    24    12    45 1
    25    14    13 1
    26    13    46 1
    27    15    14 1
    28    19    14 1
    29    14    47 1
    30    16    15 ar
    31    15    20 ar
    32    23    16 ar
    33    17    16 1
    34    17    18 1
    35    18    29 1
    36    18    19 1
    37    18    48 1
    38    19    49 1
    39    19    50 1
    40    21    20 ar
    41    20    51 1
    42    22    21 ar
    43    21    24 1
    44    23    22 ar
    45    22    52 1
    46    23    53 1
    47    24    25 1
    48    24    54 1
    49    24    55 1
    50    27    25 1
    51    25    26 1
    52    25    28 1
    53    26    56 1
    54    26    57 1
    55    26    58 1
    56    27    59 1
    57    27    60 1
    58    27    61 1
    59    28    62 1
    60    28    63 1
    61    28    64 1
    62    30    29 1
    63    29    31 1
    64    29    65 1
    65    30    31 1
    66    30    66 1
    67    30    67 1
    68    31    68 1
    69    31    69 1
    70    32    70 1
    71    34    33 1
    72    33    71 1
    73    36    34 2
    74    35    34 1
    75    35    72 1
    76    35    73 1
    77    35    74 1
@<TRIPOS>SUBSTRUCTURE
     1 C6A         1 TEMP              0 ****  ****    0 ROOT
