@<TRIPOS>MOLECULE
C6A
   74    77     1     0     0
SMALL
bcc


@<TRIPOS>ATOM
      1 C1           0.0000     0.0000     0.0000 ca         1 C6A      -0.151000
      2 C2           1.3820     0.0000     0.0000 ca         1 C6A      -0.033300
      3 C3           2.0750     0.0000     1.1960 ca         1 C6A      -0.151000
      4 C4           1.3840    -0.0000     2.3960 ca         1 C6A       0.134900
      5 C5           0.0000     0.0010     2.3970 ca         1 C6A      -0.175000
      6 C6          -0.6920     0.0060     1.1990 ca         1 C6A       0.134900
      7 F7          -2.0430     0.0070     1.1990 f          1 C6A      -0.124400
      8 F8           2.0610     0.0000     3.5650 f          1 C6A      -0.124400
      9 C9           2.1360    -0.0010    -1.3060 c3         1 C6A      -0.015100
     10 C10          2.3900     1.4420    -1.7490 c3         1 C6A       0.024700
     11 C11          3.2610     1.4440    -3.0060 c3         1 C6A       0.151100
     12 C12          3.5160     2.8850    -3.4480 c3         1 C6A       0.106800
     13 N13          4.2500     2.8850    -4.7210 n7         1 C6A      -0.581200
     14 C14          4.5120     4.2560    -5.1790 c3         1 C6A       0.187800
     15 C15          3.3170     4.7690    -5.9400 ca         1 C6A      -0.159300
     16 C16          3.3110     4.8220    -7.3230 ca         1 C6A       0.172100
     17 O17          4.3800     4.4220    -8.0590 os         1 C6A      -0.306900
     18 C18          5.3630     3.6060    -7.4200 c3         1 C6A       0.222100
     19 C19          5.7440     4.2630    -6.0880 c3         1 C6A      -0.069400
     20 C20          2.2060     5.1930    -5.2300 ca         1 C6A      -0.070000
     21 C21          1.0920     5.6670    -5.8940 ca         1 C6A      -0.126300
     22 C22          1.0830     5.7180    -7.2770 ca         1 C6A      -0.064000
     23 C23          2.1870     5.2980    -7.9900 ca         1 C6A      -0.139000
     24 C24         -0.1130     6.1270    -5.1140 c3         1 C6A       0.043900
     25 C25          0.0200     7.6190    -4.8050 c3         1 C6A      -0.068000
     26 C26          0.1110     8.4050    -6.1130 c3         1 C6A       0.001567
     27 C27         -1.2030     8.0860    -4.0130 c3         1 C6A       0.001567
     28 C28          1.2850     7.8570    -3.9760 c3         1 C6A       0.001567
     29 C29          6.6000     3.4950    -8.3130 cx         1 C6A      -0.134700
     30 C30          6.6590     4.3880    -9.5540 cx         1 C6A      -0.072900
     31 C31          6.4160     2.8850    -9.7040 cx         1 C6A      -0.072900
     32 O32          4.5070     0.8040    -2.7230 oh         1 C6A      -0.590800
     33 N33          1.1120     2.0970    -2.0380 ns         1 C6A      -0.191900
     34 C34          0.3030     1.6010    -2.9940 c          1 C6A       0.576100
     35 C35         -1.0120     2.2740    -3.2940 c3         1 C6A      -0.068100
     36 O36          0.6330     0.6130    -3.6160 o          1 C6A      -0.653100
     37 H1          -0.5420     0.0020    -0.9380 ha         1 C6A       0.130500
     38 H3           3.1580    -0.0000     1.1940 ha         1 C6A       0.130500
     39 H5          -0.5410     0.0030     3.3350 ha         1 C6A       0.135000
     40 H9           3.0820    -0.5110    -1.1760 hc         1 C6A       0.056700
     41 H9A          1.5500    -0.5130    -2.0600 hc         1 C6A       0.056700
     42 H10          2.8990     1.9780    -0.9570 h1         1 C6A       0.040700
     43 H11          2.7520     0.9080    -3.7980 h1         1 C6A       0.064700
     44 H12          2.5690     3.3960    -3.5770 h1         1 C6A       0.020200
     45 H12A         4.1020     3.3960    -2.6940 h1         1 C6A       0.020200
     46 HN13         5.1180     2.4000    -4.6060 hn         1 C6A       0.263800
     47 H14          4.6950     4.8970    -4.3240 h1         1 C6A       0.018700
     48 H18          4.9520     2.6210    -7.2350 h1         1 C6A       0.036700
     49 H19          6.5310     3.6830    -5.6210 hc         1 C6A       0.034700
     50 H19A         6.0410     5.2880    -6.2720 hc         1 C6A       0.034700
     51 H20          2.2120     5.1540    -4.1470 ha         1 C6A       0.108000
     52 H22          0.2090     6.0890    -7.7990 ha         1 C6A       0.109000
     53 H23          2.1780     5.3380    -9.0720 ha         1 C6A       0.116000
     54 H24         -1.0080     5.9580    -5.7000 hc         1 C6A       0.016700
     55 H24A        -0.1770     5.5700    -4.1870 hc         1 C6A       0.016700
     56 H26         -0.0600     9.4570    -5.9150 hc         1 C6A       0.006478
     57 H26A         1.0960     8.2760    -6.5450 hc         1 C6A       0.006478
     58 H26B        -0.6380     8.0420    -6.8060 hc         1 C6A       0.006478
     59 H27         -1.1310     9.1510    -3.8310 hc         1 C6A       0.006478
     60 H27A        -2.1020     7.8760    -4.5800 hc         1 C6A       0.006478
     61 H27B        -1.2430     7.5600    -3.0670 hc         1 C6A       0.006478
     62 H28          1.2690     8.8640    -3.5760 hc         1 C6A       0.006478
     63 H28A         2.1580     7.7320    -4.6050 hc         1 C6A       0.006478
     64 H28B         1.3220     7.1450    -3.1610 hc         1 C6A       0.006478
     65 H29          7.5600     3.2940    -7.8530 hc         1 C6A       0.064700
     66 H30          7.6470     4.7330    -9.8360 hc         1 C6A       0.050200
     67 H30A         5.7940     5.0200    -9.7170 hc         1 C6A       0.050200
     68 H31          7.2560     2.3110   -10.0770 hc         1 C6A       0.050200
     69 H31A         5.4030     2.5990    -9.9590 hc         1 C6A       0.050200
     70 HO32         4.6560     0.1150    -3.3490 ho         1 C6A       0.400000
     71 HN33         0.8450     2.9190    -1.5340 hn         1 C6A       0.177500
     72 H35         -1.0450     2.5520    -4.3400 hc         1 C6A       0.025033
     73 H35A        -1.1110     3.1620    -2.6810 hc         1 C6A       0.025033
     74 H35B        -1.8250     1.5920    -3.0760 hc         1 C6A       0.025033
@<TRIPOS>BOND
     1     1     2 ar  
     2     1     6 ar  
     3     1    37 1   
     4     2     3 ar  
     5     2     9 1   
     6     3     4 ar  
     7     3    38 1   
     8     4     5 ar  
     9     4     8 1   
    10     5     6 ar  
    11     5    39 1   
    12     6     7 1   
    13     9    10 1   
    14     9    40 1   
    15     9    41 1   
    16    10    11 1   
    17    10    33 1   
    18    10    42 1   
    19    11    12 1   
    20    11    32 1   
    21    11    43 1   
    22    12    13 1   
    23    12    44 1   
    24    12    45 1   
    25    13    14 1   
    26    13    46 1   
    27    14    15 1   
    28    14    19 1   
    29    14    47 1   
    30    15    16 ar  
    31    15    20 ar  
    32    16    17 1   
    33    16    23 ar  
    34    17    18 1   
    35    18    19 1   
    36    18    29 1   
    37    18    48 1   
    38    19    49 1   
    39    19    50 1   
    40    20    21 ar  
    41    20    51 1   
    42    21    22 ar  
    43    21    24 1   
    44    22    23 ar  
    45    22    52 1   
    46    23    53 1   
    47    24    25 1   
    48    24    54 1   
    49    24    55 1   
    50    25    26 1   
    51    25    27 1   
    52    25    28 1   
    53    26    56 1   
    54    26    57 1   
    55    26    58 1   
    56    27    59 1   
    57    27    60 1   
    58    27    61 1   
    59    28    62 1   
    60    28    63 1   
    61    28    64 1   
    62    29    30 1   
    63    29    31 1   
    64    29    65 1   
    65    30    31 1   
    66    30    66 1   
    67    30    67 1   
    68    31    68 1   
    69    31    69 1   
    70    32    70 1   
    71    33    34 1   
    72    33    71 1   
    73    34    35 1   
    74    34    36 2   
    75    35    72 1   
    76    35    73 1   
    77    35    74 1   
@<TRIPOS>SUBSTRUCTURE
     1 C6A         1 TEMP              0 ****  ****    0 ROOT
