@<TRIPOS>MOLECULE
C6B
   33    34     1     0     0
SMALL
bcc


@<TRIPOS>ATOM
      1 O1P         0.5250    0.1290   -0.3250 o         1 C6B     -0.906833
      2 P           2.0060    0.0170   -0.0650 p5        1 C6B      1.310900
      3 O2P         2.4750    0.1860    1.3420 o         1 C6B     -0.906833
      4 O3P         2.7900   -0.8940   -0.9700 o         1 C6B     -0.906833
      5 O3'         2.4270    1.5350   -0.8340 os        1 C6B     -0.568200
      6 C3'         2.0970    1.5660   -2.1640 c3        1 C6B      0.172100
      7 C2'         0.9720    2.6090   -2.4270 c3        1 C6B      0.112100
      8 O2'         0.1120    2.7900   -1.3410 oh        1 C6B     -0.652800
      9 C4'         3.2630    2.0970   -3.0310 c3        1 C6B      0.064100
     10 C5'         4.6160    1.9520   -2.3400 c3        1 C6B      0.162400
     11 O5'         4.9730    0.5960   -2.2300 oh        1 C6B     -0.667800
     12 O4'         3.0140    3.4820   -3.3440 os        1 C6B     -0.445600
     13 C1'         1.7370    3.9060   -2.8430 c3        1 C6B      0.270500
     14 N1          1.9180    4.9180   -1.7980 n         1 C6B     -0.336000
     15 C6          2.2560    4.5640   -0.5250 cc        1 C6B      0.120600
     16 C5          2.4250    5.5130    0.4690 cd        1 C6B     -0.479600
     17 C4          2.2250    6.8980    0.1250 cd        1 C6B      0.707500
     18 N4          2.4540    7.8700    1.1190 nh        1 C6B     -0.892800
     19 N3          1.8710    7.2900   -1.1130 nc        1 C6B     -0.759100
     20 C2          1.7270    6.3110   -2.1090 c         1 C6B      0.824900
     21 O2          1.4110    6.6370   -3.2790 o         1 C6B     -0.677500
     22 H3'         1.7780    0.5460   -2.5200 h1        1 C6B      0.084700
     23 H2'         0.3590    2.3070   -3.3210 h1        1 C6B      0.021700
     24 HO2'        0.2190    1.9870   -0.7580 ho        1 C6B      0.500000
     25 H4'         3.2830    1.5660   -4.0220 h1        1 C6B      0.033700
     26 H5'         5.4210    2.4330   -2.9580 h1        1 C6B      0.023700
     27 H5'A        4.5760    2.4370   -1.3290 h1        1 C6B      0.023700
     28 HO5'        4.2580    0.1360   -1.7200 ho        1 C6B      0.492000
     29 H1'         1.2340    4.4250   -3.7120 h2        1 C6B      0.087700
     30 H6          2.3740    3.4650   -0.3180 h4        1 C6B      0.262000
     31 H5          2.7050    5.2000    1.4790 ha        1 C6B      0.153000
     32 HN4         2.0620    8.7680    0.9390 hn        1 C6B      0.386300
     33 HN4A        2.2650    7.5330    2.0360 hn        1 C6B      0.386300
@<TRIPOS>BOND
     1    1    2 1   
     2    2    3 1   
     3    2    4 1   
     4    2    5 1   
     5    5    6 1   
     6    6    7 1   
     7    6    9 1   
     8    6   22 1   
     9    7    8 1   
    10    7   13 1   
    11    7   23 1   
    12    8   24 1   
    13    9   10 1   
    14    9   12 1   
    15    9   25 1   
    16   10   11 1   
    17   10   26 1   
    18   10   27 1   
    19   11   28 1   
    20   12   13 1   
    21   13   14 1   
    22   13   29 1   
    23   14   15 1   
    24   14   20 1   
    25   15   16 2   
    26   15   30 1   
    27   16   17 1   
    28   16   31 1   
    29   17   18 1   
    30   17   19 2   
    31   18   32 1   
    32   18   33 1   
    33   19   20 1   
    34   20   21 2   
@<TRIPOS>SUBSTRUCTURE
     1 C6B         1 TEMP              0 ****  ****    0 ROOT
