@<TRIPOS>MOLECULE
C6D
   36    35     1     0     0
SMALL
bcc


@<TRIPOS>ATOM
      1 N            0.0000     0.0000     0.0000 nz         1 C6D       0.040400
      2 CA           1.4690     0.0000     0.0000 c3         1 C6D      -0.111500
      3 C            1.9710     0.0000     1.4210 c          1 C6D       0.948600
      4 O            3.2250    -0.3980     1.6900 o          1 C6D      -0.808800
      5 CB           1.9790     1.2490    -0.7220 c3         1 C6D      -0.196400
      6 CG           1.5750     1.1860    -2.1960 c3         1 C6D       0.003600
      7 CD           2.0850     2.4350    -2.9180 c3         1 C6D       0.185800
      8 NE           1.6960     2.3760    -4.3290 nu         1 C6D      -0.568200
      9 CZ           2.0480     3.3960    -5.1820 c2         1 C6D       0.564100
     10 NH1          2.7250     4.4150    -4.7340 n2         1 C6D      -0.867100
     11 NH2          1.6840     3.3400    -6.5070 nu         1 C6D      -0.488200
     12 C01          1.5340     4.1200    -8.8200 c3         1 C6D      -0.054400
     13 C02          2.0570     4.4260    -7.4150 c3         1 C6D       0.186800
     14 C03          1.9250     5.2550    -9.7690 c3         1 C6D       0.233400
     15 O2           1.4360     4.9680   -11.0800 oh         1 C6D      -0.596800
     16 H1          -0.3340    -0.5470     0.7690 hn         1 C6D       0.217467
     17 H2          -0.3340     0.9390     0.0890 hn         1 C6D       0.217467
     18 H4           1.8300    -0.8850    -0.5100 hx         1 C6D       0.064700
     19 H6           2.3650     0.2710    -0.9850 hc         1 C6D       0.100200
     20 H7           2.8720     1.7770    -0.4100 hc         1 C6D       0.100200
     21 H8           2.0070     0.3040    -2.6520 hc         1 C6D      -0.002800
     22 H9           0.4950     1.1410    -2.2730 hc         1 C6D      -0.002800
     23 H10          3.1650     2.4800    -2.8420 h1         1 C6D       0.027700
     24 H11          1.6540     3.3180    -2.4610 h1         1 C6D       0.027700
     25 H12          1.1570     1.6040    -4.6680 hn         1 C6D       0.284800
     26 H13          2.9890     4.4560    -3.7700 hn         1 C6D       0.334400
     27 H14          1.1490     2.5650    -6.8460 hn         1 C6D       0.282800
     28 H15          1.9660     3.1910    -9.1710 hc         1 C6D       0.022700
     29 H16          0.4550     4.0290    -8.7910 hc         1 C6D       0.022700
     30 H17          3.1360     4.5180    -7.4440 h1         1 C6D       0.026700
     31 H18          1.6250     5.3550    -7.0630 h1         1 C6D       0.026700
     32 H19          1.4930     6.1850    -9.4180 h1         1 C6D      -0.011800
     33 H20          3.0040     5.3470    -9.7980 h1         1 C6D      -0.011800
     34 H21          1.6760     5.6670   -11.6660 ho         1 C6D       0.393000
     35 O1           1.2460     0.3590     2.3180 o          1 C6D      -0.808800
     36 HN3         -0.3340    -0.3900    -0.8590 hn         1 C6D       0.217467
@<TRIPOS>BOND
     1     1     2 1   
     2     1    16 1   
     3     1    17 1   
     4     1    36 1   
     5     2     3 1   
     6     2     5 1   
     7     2    18 1   
     8     3     4 1   
     9     3    35 1   
    10     5     6 1   
    11     5    19 1   
    12     5    20 1   
    13     6     7 1   
    14     6    21 1   
    15     6    22 1   
    16     7     8 1   
    17     7    23 1   
    18     7    24 1   
    19     8     9 1   
    20     8    25 1   
    21     9    10 2   
    22     9    11 1   
    23    10    26 1   
    24    11    13 1   
    25    11    27 1   
    26    12    13 1   
    27    12    14 1   
    28    12    28 1   
    29    12    29 1   
    30    13    30 1   
    31    13    31 1   
    32    14    15 1   
    33    14    32 1   
    34    14    33 1   
    35    15    34 1   
@<TRIPOS>SUBSTRUCTURE
     1 C6D         1 TEMP              0 ****  ****    0 ROOT
