@<TRIPOS>MOLECULE
C6H
   62    65     1     0     0
SMALL
bcc


@<TRIPOS>ATOM
      1 C01          0.0000     0.0000     0.0000 c3         1 C6H       0.270700
      2 O02          1.4280     0.0000     0.0000 os         1 C6H      -0.322900
      3 C03          2.0430     0.0000     1.2080 ca         1 C6H       0.267100
      4 C04          2.3590     1.2080     1.8430 ca         1 C6H      -0.252600
      5 C05          2.0300     2.4830     1.2000 c          1 C6H       0.631700
      6 O06          1.4850     2.4930     0.1170 o          1 C6H      -0.555100
      7 C07          2.3710     3.7820     1.8840 c3         1 C6H      -0.132400
      8 C08          1.9250     4.9530     1.0060 c3         1 C6H      -0.015400
      9 C09          2.2710     6.2720     1.7000 c3         1 C6H      -0.056700
     10 C10          1.9390     7.4420     0.7700 c3         1 C6H      -0.025400
     11 C11          2.2290     8.7600     1.4920 c3         1 C6H       0.149800
     12 N12          1.4200     8.8380     2.7150 n3         1 C6H      -0.537600
     13 C13          1.5690    10.1480     3.3620 c3         1 C6H       0.154800
     14 C14          0.5340    10.2850     4.4800 c3         1 C6H      -0.058700
     15 C15          0.7690    11.5960     5.2350 c3         1 C6H      -0.022400
     16 C16         -0.2680    11.7340     6.3520 c3         1 C6H      -0.023400
     17 C17         -1.6730    11.7380     5.7480 c3         1 C6H      -0.025400
     18 C18         -1.9080    10.4280     4.9940 c3         1 C6H      -0.023400
     19 C19         -0.8720    10.2900     3.8760 c3         1 C6H      -0.022400
     20 C20          1.7550     7.7510     3.6440 c3         1 C6H       0.149800
     21 C21          1.4500     6.4030     2.9860 c3         1 C6H      -0.025400
     22 C22          2.9920     1.1960     3.1000 ca         1 C6H      -0.038000
     23 C23          3.3030     0.0190     3.7090 ca         1 C6H      -0.057600
     24 Cl           4.0830     0.0300     5.2590 cl         1 C6H      -0.039400
     25 C25          2.9970    -1.1990     3.0940 ca         1 C6H      -0.196200
     26 N26          3.1840    -2.5090     3.4610 na         1 C6H       0.377600
     27 C27          2.6980    -3.3410     2.4900 cc         1 C6H      -0.281100
     28 C28          2.1880    -2.6170     1.4820 cd         1 C6H      -0.124200
     29 C29          2.3640    -1.2070     1.8380 ca         1 C6H      -0.150800
     30 H1          -0.3610    -1.0200    -0.0540 h1         1 C6H      -0.008300
     31 H2          -0.3610     0.4630     0.9100 h1         1 C6H      -0.008300
     32 H3          -0.3610     0.5570    -0.8560 h1         1 C6H      -0.008300
     33 H4           1.8610     3.8320     2.8390 hc         1 C6H       0.037700
     34 H5           3.4410     3.8370     2.0430 hc         1 C6H       0.037700
     35 H6           0.8550     4.8980     0.8470 hc         1 C6H       0.030200
     36 H7           2.4350     4.9030     0.0520 hc         1 C6H       0.030200
     37 H8           3.3260     6.2930     1.9430 hc         1 C6H       0.025700
     38 H9           0.8910     7.4020     0.5010 hc         1 C6H       0.022950
     39 H10          2.5500     7.3780    -0.1220 hc         1 C6H       0.022950
     40 H11          1.9790     9.5890     0.8420 h1         1 C6H       0.009450
     41 H12          3.2800     8.8040     1.7530 h1         1 C6H       0.009450
     42 H14          1.4160    10.9310     2.6300 h1         1 C6H       0.009700
     43 H15          2.5650    10.2330     3.7790 h1         1 C6H       0.009700
     44 H16          0.6260     9.4530     5.1680 hc         1 C6H       0.035700
     45 H17          0.6710    12.4290     4.5490 hc         1 C6H       0.018700
     46 H18          1.7630    11.5910     5.6650 hc         1 C6H       0.018700
     47 H19         -0.1020    12.6630     6.8840 hc         1 C6H       0.011700
     48 H20         -0.1730    10.8990     7.0360 hc         1 C6H       0.011700
     49 H21         -1.7670    12.5700     5.0610 hc         1 C6H       0.011700
     50 H22         -2.4050    11.8330     6.5400 hc         1 C6H       0.011700
     51 H23         -2.9030    10.4330     4.5640 hc         1 C6H       0.011700
     52 H24         -1.8100     9.5950     5.6800 hc         1 C6H       0.011700
     53 H25         -1.0380     9.3620     3.3430 hc         1 C6H       0.018700
     54 H26         -0.9670    11.1260     3.1930 hc         1 C6H       0.018700
     55 H27          1.1630     7.8540     4.5460 h1         1 C6H       0.009450
     56 H28          2.8080     7.8010     3.8910 h1         1 C6H       0.009450
     57 H29          0.3940     6.3490     2.7470 hc         1 C6H       0.022950
     58 H30          1.7140     5.6020     3.6660 hc         1 C6H       0.022950
     59 H31          3.2350     2.1320     3.5870 ha         1 C6H       0.120000
     60 H32          3.6140    -2.8110     4.3130 hn         1 C6H       0.120700
     61 H33          2.7210    -4.4230     2.5300 h4         1 C6H       0.144000
     62 H34          1.7330    -3.0020     0.5770 ha         1 C6H       0.137000
@<TRIPOS>BOND
     1     1     2 1   
     2     1    30 1   
     3     1    31 1   
     4     1    32 1   
     5     2     3 1   
     6     3     4 ar  
     7     3    29 ar  
     8     4     5 1   
     9     4    22 ar  
    10     5     6 2   
    11     5     7 1   
    12     7     8 1   
    13     7    33 1   
    14     7    34 1   
    15     8     9 1   
    16     8    35 1   
    17     8    36 1   
    18     9    10 1   
    19     9    21 1   
    20     9    37 1   
    21    10    11 1   
    22    10    38 1   
    23    10    39 1   
    24    11    12 1   
    25    11    40 1   
    26    11    41 1   
    27    12    13 1   
    28    12    20 1   
    29    13    14 1   
    30    13    42 1   
    31    13    43 1   
    32    14    15 1   
    33    14    19 1   
    34    14    44 1   
    35    15    16 1   
    36    15    45 1   
    37    15    46 1   
    38    16    17 1   
    39    16    47 1   
    40    16    48 1   
    41    17    18 1   
    42    17    49 1   
    43    17    50 1   
    44    18    19 1   
    45    18    51 1   
    46    18    52 1   
    47    19    53 1   
    48    19    54 1   
    49    20    21 1   
    50    20    55 1   
    51    20    56 1   
    52    21    57 1   
    53    21    58 1   
    54    22    23 ar  
    55    22    59 1   
    56    23    24 1   
    57    23    25 ar  
    58    25    26 1   
    59    25    29 ar  
    60    26    27 1   
    61    26    60 1   
    62    27    28 2   
    63    27    61 1   
    64    28    29 1   
    65    28    62 1   
@<TRIPOS>SUBSTRUCTURE
     1 C6H         1 TEMP              0 ****  ****    0 ROOT
