@<TRIPOS>MOLECULE
molecule
   62    65     1     0     0
SMALL
bcc


@<TRIPOS>ATOM
      1 C01          0.0000     0.0000     0.0000 c3         1 C6H       0.151700
      2 O02          1.4280     0.0000     0.0000 os         1 C6H      -0.334900
      3 C03          2.0430     0.0000     1.2080 ca         1 C6H       0.237100
      4 C04          2.3590     1.2080     1.8430 ca         1 C6H      -0.234600
      5 C05          2.0300     2.4830     1.2000 c          1 C6H       0.580700
      6 O06          1.4850     2.4930     0.1170 o          1 C6H      -0.519100
      7 C07          2.3710     3.7820     1.8840 c3         1 C6H      -0.180400
      8 C08          1.9250     4.9530     1.0060 c3         1 C6H      -0.066400
      9 C09          2.2710     6.2720     1.7000 c3         1 C6H      -0.075700
     10 C10          1.9390     7.4420     0.7700 c3         1 C6H      -0.074400
     11 C11          2.2290     8.7600     1.4920 c3         1 C6H       0.162800
     12 N12          1.4200     8.8380     2.7150 n3         1 C6H      -0.729600
     13 C13          1.5690    10.1480     3.3620 c3         1 C6H       0.165800
     14 C14          0.5340    10.2850     4.4800 c3         1 C6H      -0.069700
     15 C15          0.7690    11.5960     5.2350 c3         1 C6H      -0.073400
     16 C16         -0.2680    11.7340     6.3520 c3         1 C6H      -0.079900
     17 C17         -1.6730    11.7380     5.7480 c3         1 C6H      -0.080400
     18 C18         -1.9080    10.4280     4.9940 c3         1 C6H      -0.079900
     19 C19         -0.8720    10.2900     3.8760 c3         1 C6H      -0.073400
     20 C20          1.7550     7.7510     3.6440 c3         1 C6H       0.162800
     21 C21          1.4500     6.4030     2.9860 c3         1 C6H      -0.074400
     22 C22          2.9920     1.1960     3.1000 ca         1 C6H      -0.058000
     23 C23          3.3030     0.0190     3.7090 ca         1 C6H      -0.008600
     24 Cl           4.0830     0.0300     5.2590 cl         1 C6H      -0.118400
     25 C25          2.9970    -1.1990     3.0940 ca         1 C6H      -0.006200
     26 N26          3.1840    -2.5090     3.4610 na         1 C6H      -0.166400
     27 C27          2.6980    -3.3410     2.4900 cc         1 C6H      -0.109100
     28 C28          2.1880    -2.6170     1.4820 cd         1 C6H      -0.170200
     29 C29          2.3640    -1.2070     1.8380 ca         1 C6H      -0.140800
     30 H1          -0.3610    -1.0200    -0.0540 h1         1 C6H       0.037700
     31 H2          -0.3610     0.4630     0.9100 h1         1 C6H       0.037700
     32 H3          -0.3610     0.5570    -0.8560 h1         1 C6H       0.037700
     33 H4           1.8610     3.8320     2.8390 hc         1 C6H       0.064700
     34 H5           3.4410     3.8370     2.0430 hc         1 C6H       0.064700
     35 H6           0.8550     4.8980     0.8470 hc         1 C6H       0.056700
     36 H7           2.4350     4.9030     0.0520 hc         1 C6H       0.056700
     37 H8           3.3260     6.2930     1.9430 hc         1 C6H       0.046700
     38 H9           0.8910     7.4020     0.5010 hc         1 C6H       0.049450
     39 H10          2.5500     7.3780    -0.1220 hc         1 C6H       0.049450
     40 H11          1.9790     9.5890     0.8420 h1         1 C6H       0.033200
     41 H12          3.2800     8.8040     1.7530 h1         1 C6H       0.033200
     42 H14          1.4160    10.9310     2.6300 h1         1 C6H       0.033200
     43 H15          2.5650    10.2330     3.7790 h1         1 C6H       0.033200
     44 H16          0.6260     9.4530     5.1680 hc         1 C6H       0.052700
     45 H17          0.6710    12.4290     4.5490 hc         1 C6H       0.044950
     46 H18          1.7630    11.5910     5.6650 hc         1 C6H       0.044950
     47 H19         -0.1020    12.6630     6.8840 hc         1 C6H       0.039450
     48 H20         -0.1730    10.8990     7.0360 hc         1 C6H       0.039450
     49 H21         -1.7670    12.5700     5.0610 hc         1 C6H       0.039200
     50 H22         -2.4050    11.8330     6.5400 hc         1 C6H       0.039200
     51 H23         -2.9030    10.4330     4.5640 hc         1 C6H       0.039450
     52 H24         -1.8100     9.5950     5.6800 hc         1 C6H       0.039450
     53 H25         -1.0380     9.3620     3.3430 hc         1 C6H       0.044950
     54 H26         -0.9670    11.1260     3.1930 hc         1 C6H       0.044950
     55 H27          1.1630     7.8540     4.5460 h1         1 C6H       0.033200
     56 H28          2.8080     7.8010     3.8910 h1         1 C6H       0.033200
     57 H29          0.3940     6.3490     2.7470 hc         1 C6H       0.049450
     58 H30          1.7140     5.6020     3.6660 hc         1 C6H       0.049450
     59 H31          3.2350     2.1320     3.5870 ha         1 C6H       0.150000
     60 H32          3.6140    -2.8110     4.3130 hn         1 C6H       0.306700
     61 H33          2.7210    -4.4230     2.5300 h4         1 C6H       0.172000
     62 H34          1.7330    -3.0020     0.5770 ha         1 C6H       0.166000
@<TRIPOS>BOND
     1    24    23 1
     2    22    23 ar
     3    22     4 ar
     4     6     5 2
     5    23    25 ar
     6     5     4 1
     7     5     7 1
     8     8     7 1
     9     8     9 1
    10     4     3 ar
    11    25    26 1
    12    25    29 ar
    13    21     9 1
    14    21    20 1
    15    26    27 1
    16     9    10 1
    17     3    29 ar
    18     3     2 1
    19    29    28 1
    20    20    12 1
    21    27    28 2
    22     2     1 1
    23    10    11 1
    24    18    19 1
    25    18    17 1
    26    12    11 1
    27    12    13 1
    28    19    14 1
    29    14    13 1
    30    14    15 1
    31    17    16 1
    32    16    15 1
    33     1    30 1
    34     1    31 1
    35     1    32 1
    36     7    33 1
    37     7    34 1
    38     8    35 1
    39     8    36 1
    40     9    37 1
    41    10    38 1
    42    10    39 1
    43    11    40 1
    44    11    41 1
    45    13    42 1
    46    13    43 1
    47    14    44 1
    48    15    45 1
    49    15    46 1
    50    16    47 1
    51    16    48 1
    52    17    49 1
    53    17    50 1
    54    18    51 1
    55    18    52 1
    56    19    53 1
    57    19    54 1
    58    20    55 1
    59    20    56 1
    60    21    57 1
    61    21    58 1
    62    22    59 1
    63    26    60 1
    64    27    61 1
    65    28    62 1
@<TRIPOS>SUBSTRUCTURE
     1 C6H         1 TEMP              0 ****  ****    0 ROOT
