@<TRIPOS>MOLECULE
C6K
   56    59     1     0     0
SMALL
bcc


@<TRIPOS>ATOM
      1 C10          0.0000     0.0000     0.0000 c3         1 C6K      -0.021900
      2 N12          0.0020    -1.1740     2.1500 n3         1 C6K      -0.532600
      3 C13         -0.5740    -2.2550     2.9600 c3         1 C6K       0.210100
      4 C15         -2.9340    -2.5720     2.1870 ca         1 C6K      -0.091000
      5 C17         -4.7780    -1.6290     3.3880 ca         1 C6K      -0.102000
      6 C20          1.4690    -1.2210     2.1770 c3         1 C6K       0.136300
      7 C21          2.0340     0.0000     1.4460 c3         1 C6K      -0.021900
      8 C22          6.4160    -1.6180    -1.3260 ca         1 C6K      -0.038000
      9 C28          8.1730    -4.9250    -3.2700 cc         1 C6K      -0.125200
     10 C01          4.5880    -4.5430    -4.1770 c3         1 C6K       0.266700
     11 C03          5.9760    -3.7400    -2.4260 ca         1 C6K       0.268100
     12 C04          5.5060    -2.5960    -1.7670 ca         1 C6K      -0.252600
     13 C05          4.0700    -2.4190    -1.5370 c          1 C6K       0.631700
     14 O06          3.2860    -3.2630    -1.9180 o          1 C6K      -0.557100
     15 C07          3.5670    -1.1870    -0.8290 c3         1 C6K      -0.130400
     16 C08          2.0420    -1.2500    -0.7200 c3         1 C6K      -0.033400
     17 C09          1.5310     0.0000     0.0000 c3         1 C6K      -0.052700
     18 C11         -0.5050    -1.2200     0.7730 c3         1 C6K       0.136300
     19 C14         -2.0580    -2.0350     3.1110 ca         1 C6K      -0.089300
     20 C16         -4.2940    -2.3700     2.3260 ca         1 C6K      -0.102500
     21 C18         -3.9020    -1.0920     4.3120 ca         1 C6K      -0.102500
     22 C19         -2.5410    -1.2950     4.1740 ca         1 C6K      -0.091000
     23 C23          7.7520    -1.7680    -1.5370 ca         1 C6K      -0.057600
     24 Cl           8.8550    -0.5430    -0.9890 cl         1 C6K      -0.039400
     25 C25          8.2430    -2.9000    -2.1920 ca         1 C6K      -0.195200
     26 N26          9.5080    -3.3120    -2.5360 na         1 C6K       0.375600
     27 C27          9.4490    -4.5200    -3.1770 cd         1 C6K      -0.280100
     28 C29          7.3500    -3.8930    -2.6350 ca         1 C6K      -0.150800
     29 H1          -0.3600     0.9040     0.4770 hc         1 C6K       0.021450
     30 H2          -0.3600    -0.0450    -1.0210 hc         1 C6K       0.021450
     31 H4          -0.1090    -2.2610     3.9380 h1         1 C6K       0.011700
     32 H5          -0.3990    -3.2060     2.4710 h1         1 C6K       0.011700
     33 H6          -2.5550    -3.1530     1.3550 ha         1 C6K       0.107000
     34 H7          -5.8440    -1.4700     3.4970 ha         1 C6K       0.101000
     35 H8           1.8100    -1.2140     3.2060 h1         1 C6K       0.017200
     36 H9           1.8090    -2.1240     1.6850 h1         1 C6K       0.017200
     37 H10          3.1170    -0.0450     1.4510 hc         1 C6K       0.021450
     38 H11          1.7020     0.9030     1.9440 hc         1 C6K       0.021450
     39 H12          6.0490    -0.7350    -0.8170 ha         1 C6K       0.120000
     40 H13          7.8200    -5.8420    -3.7270 ha         1 C6K       0.136000
     41 H14          3.5100    -4.6530    -4.1550 h1         1 C6K      -0.007633
     42 H15          5.0100    -5.2650    -4.8660 h1         1 C6K      -0.007633
     43 H16          4.8420    -3.5420    -4.5020 h1         1 C6K      -0.007633
     44 H17          3.8530    -0.3060    -1.3900 hc         1 C6K       0.038700
     45 H18          3.9990    -1.1390     0.1630 hc         1 C6K       0.038700
     46 H19          1.6110    -1.2970    -1.7120 hc         1 C6K       0.035200
     47 H20          1.7560    -2.1320    -0.1590 hc         1 C6K       0.035200
     48 H21          1.8910     0.8870    -0.5060 hc         1 C6K       0.024700
     49 H22         -0.1520    -2.1240     0.2900 h1         1 C6K       0.017200
     50 H23         -1.5890    -1.2130     0.7890 h1         1 C6K       0.017200
     51 H24         -4.9810    -2.7910     1.6020 ha         1 C6K       0.101000
     52 H25         -4.2810    -0.5120     5.1450 ha         1 C6K       0.101000
     53 H26         -1.8550    -0.8730     4.8980 ha         1 C6K       0.107000
     54 H27         10.3480    -2.8030    -2.3450 hn         1 C6K       0.120700
     55 H28         10.3050    -5.0670    -3.5530 h4         1 C6K       0.144000
     56 O02          5.1080    -4.6890    -2.8540 os         1 C6K      -0.323900
@<TRIPOS>BOND
     1     1    17 1   
     2     1    18 1   
     3     1    29 1   
     4     1    30 1   
     5     2     3 1   
     6     2     6 1   
     7     2    18 1   
     8     3    19 1   
     9     3    31 1   
    10     3    32 1   
    11     4    19 ar  
    12     4    20 ar  
    13     4    33 1   
    14     5    20 ar  
    15     5    21 ar  
    16     5    34 1   
    17     6     7 1   
    18     6    35 1   
    19     6    36 1   
    20     7    17 1   
    21     7    37 1   
    22     7    38 1   
    23     8    12 ar  
    24     8    23 ar  
    25     8    39 1   
    26     9    27 2   
    27     9    28 1   
    28     9    40 1   
    29    10    41 1   
    30    10    42 1   
    31    10    43 1   
    32    10    56 1   
    33    11    12 ar  
    34    11    28 ar  
    35    11    56 1   
    36    12    13 1   
    37    13    14 2   
    38    13    15 1   
    39    15    16 1   
    40    15    44 1   
    41    15    45 1   
    42    16    17 1   
    43    16    46 1   
    44    16    47 1   
    45    17    48 1   
    46    18    49 1   
    47    18    50 1   
    48    19    22 ar  
    49    20    51 1   
    50    21    22 ar  
    51    21    52 1   
    52    22    53 1   
    53    23    24 1   
    54    23    25 ar  
    55    25    26 1   
    56    25    28 ar  
    57    26    27 1   
    58    26    54 1   
    59    27    55 1   
@<TRIPOS>SUBSTRUCTURE
     1 C6K         1 TEMP              0 ****  ****    0 ROOT
