@<TRIPOS>MOLECULE
molecule
   56    59     1     0     0
SMALL
bcc


@<TRIPOS>ATOM
      1 C10          0.0000     0.0000     0.0000 c3         1 C6K      -0.072900
      2 N12          0.0020    -1.1740     2.1500 n3         1 C6K      -0.724600
      3 C13         -0.5740    -2.2550     2.9600 c3         1 C6K       0.208100
      4 C15         -2.9340    -2.5720     2.1870 ca         1 C6K      -0.117000
      5 C17         -4.7780    -1.6290     3.3880 ca         1 C6K      -0.128000
      6 C20          1.4690    -1.2210     2.1770 c3         1 C6K       0.158300
      7 C21          2.0340     0.0000     1.4460 c3         1 C6K      -0.072900
      8 C22          6.4160    -1.6180    -1.3260 ca         1 C6K      -0.058000
      9 C28          8.1730    -4.9250    -3.2700 cc         1 C6K      -0.170200
     10 C01          4.5880    -4.5430    -4.1770 c3         1 C6K       0.150700
     11 C03          5.9760    -3.7400    -2.4260 ca         1 C6K       0.238100
     12 C04          5.5060    -2.5960    -1.7670 ca         1 C6K      -0.234600
     13 C05          4.0700    -2.4190    -1.5370 c          1 C6K       0.580700
     14 O06          3.2860    -3.2630    -1.9180 o          1 C6K      -0.521100
     15 C07          3.5670    -1.1870    -0.8290 c3         1 C6K      -0.180400
     16 C08          2.0420    -1.2500    -0.7200 c3         1 C6K      -0.072400
     17 C09          1.5310     0.0000     0.0000 c3         1 C6K      -0.075700
     18 C11         -0.5050    -1.2200     0.7730 c3         1 C6K       0.158300
     19 C14         -2.0580    -2.0350     3.1110 ca         1 C6K      -0.079300
     20 C16         -4.2940    -2.3700     2.3260 ca         1 C6K      -0.130000
     21 C18         -3.9020    -1.0920     4.3120 ca         1 C6K      -0.130000
     22 C19         -2.5410    -1.2950     4.1740 ca         1 C6K      -0.117000
     23 C23          7.7520    -1.7680    -1.5370 ca         1 C6K      -0.007600
     24 Cl           8.8550    -0.5430    -0.9890 cl         1 C6K      -0.118400
     25 C25          8.2430    -2.9000    -2.1920 ca         1 C6K      -0.005200
     26 N26          9.5080    -3.3120    -2.5360 na         1 C6K      -0.166400
     27 C27          9.4490    -4.5200    -3.1770 cd         1 C6K      -0.108100
     28 C29          7.3500    -3.8930    -2.6350 ca         1 C6K      -0.140800
     29 H1          -0.3600     0.9040     0.4770 hc         1 C6K       0.048700
     30 H2          -0.3600    -0.0450    -1.0210 hc         1 C6K       0.048700
     31 H4          -0.1090    -2.2610     3.9380 h1         1 C6K       0.039700
     32 H5          -0.3990    -3.2060     2.4710 h1         1 C6K       0.039700
     33 H6          -2.5550    -3.1530     1.3550 ha         1 C6K       0.131000
     34 H7          -5.8440    -1.4700     3.4970 ha         1 C6K       0.127000
     35 H8           1.8100    -1.2140     3.2060 h1         1 C6K       0.037700
     36 H9           1.8090    -2.1240     1.6850 h1         1 C6K       0.037700
     37 H10          3.1170    -0.0450     1.4510 hc         1 C6K       0.048700
     38 H11          1.7020     0.9030     1.9440 hc         1 C6K       0.048700
     39 H12          6.0490    -0.7350    -0.8170 ha         1 C6K       0.151000
     40 H13          7.8200    -5.8420    -3.7270 ha         1 C6K       0.166000
     41 H14          3.5100    -4.6530    -4.1550 h1         1 C6K       0.038033
     42 H15          5.0100    -5.2650    -4.8660 h1         1 C6K       0.038033
     43 H16          4.8420    -3.5420    -4.5020 h1         1 C6K       0.038033
     44 H17          3.8530    -0.3060    -1.3900 hc         1 C6K       0.065200
     45 H18          3.9990    -1.1390     0.1630 hc         1 C6K       0.065200
     46 H19          1.6110    -1.2970    -1.7120 hc         1 C6K       0.057700
     47 H20          1.7560    -2.1320    -0.1590 hc         1 C6K       0.057700
     48 H21          1.8910     0.8870    -0.5060 hc         1 C6K       0.047700
     49 H22         -0.1520    -2.1240     0.2900 h1         1 C6K       0.037700
     50 H23         -1.5890    -1.2130     0.7890 h1         1 C6K       0.037700
     51 H24         -4.9810    -2.7910     1.6020 ha         1 C6K       0.128000
     52 H25         -4.2810    -0.5120     5.1450 ha         1 C6K       0.128000
     53 H26         -1.8550    -0.8730     4.8980 ha         1 C6K       0.131000
     54 H27         10.3480    -2.8030    -2.3450 hn         1 C6K       0.306700
     55 H28         10.3050    -5.0670    -3.5530 h4         1 C6K       0.172000
     56 O02          5.1080    -4.6890    -2.8540 os         1 C6K      -0.336900
@<TRIPOS>BOND
     1     4    20 ar
     2     4    19 ar
     3    20     5 ar
     4     3    19 1
     5     3     2 1
     6    19    22 ar
     7    10    56 1
     8     5    21 ar
     9    18     2 1
    10    18     1 1
    11     2     6 1
    12     9    27 2
    13     9    28 1
    14    56    11 1
    15    22    21 ar
    16    27    26 1
    17     1    17 1
    18     6     7 1
    19    28    11 ar
    20    28    25 ar
    21    11    12 ar
    22    17     7 1
    23    17    16 1
    24    26    25 1
    25    15    16 1
    26    15    13 1
    27    25    23 ar
    28    12    13 1
    29    12     8 ar
    30    13    14 2
    31    23     8 ar
    32    23    24 1
    33     1    29 1
    34     1    30 1
    35     3    31 1
    36     3    32 1
    37     4    33 1
    38     5    34 1
    39     6    35 1
    40     6    36 1
    41     7    37 1
    42     7    38 1
    43     8    39 1
    44     9    40 1
    45    10    41 1
    46    10    42 1
    47    10    43 1
    48    15    44 1
    49    15    45 1
    50    16    46 1
    51    16    47 1
    52    17    48 1
    53    18    49 1
    54    18    50 1
    55    20    51 1
    56    21    52 1
    57    22    53 1
    58    26    54 1
    59    27    55 1
@<TRIPOS>SUBSTRUCTURE
     1 C6K         1 TEMP              0 ****  ****    0 ROOT
