@<TRIPOS>MOLECULE
C6L
   33    32     1     0     0
SMALL
bcc


@<TRIPOS>ATOM
      1 O4           0.0000     0.0000     0.0000 o          1 C6L      -0.664100
      2 C5           1.2130     0.0000     0.0000 c          1 C6L       0.568100
      3 C6           1.9660     0.0000     1.3050 c3         1 C6L      -0.102400
      4 C7           0.9710    -0.0010     2.4680 c3         1 C6L      -0.014400
      5 C8           1.7360    -0.0010     3.7930 c3         1 C6L      -0.034400
      6 C9           0.7410    -0.0020     4.9560 c3         1 C6L      -0.028400
      7 C10          1.5060    -0.0030     6.2820 c3         1 C6L       0.004900
      8 N1           1.8880    -0.0050    -1.1670 ns         1 C6L      -0.143900
      9 C3           1.1560    -0.0100    -2.4360 c3         1 C6L      -0.097300
     10 C4           0.7980    -1.4280    -2.8030 c          1 C6L       0.977600
     11 O2           1.1210    -2.3400    -2.0790 o          1 C6L      -0.888800
     12 O1           0.1200    -1.6780    -3.9340 o          1 C6L      -0.888800
     13 C2           2.0330     0.5940    -3.5330 c3         1 C6L      -0.031400
     14 C1           2.2930     2.0700    -3.2230 c3         1 C6L       0.209400
     15 O3           3.1120     2.6350    -4.2480 oh         1 C6L      -0.598800
     16 H6           2.5890     0.8850     1.3630 hc         1 C6L       0.017200
     17 H6A          2.5900    -0.8840     1.3620 hc         1 C6L       0.017200
     18 H7           0.3480     0.8830     2.4110 hc         1 C6L       0.030200
     19 H7A          0.3490    -0.8860     2.4100 hc         1 C6L       0.030200
     20 H8           2.3580     0.8840     3.8510 hc         1 C6L       0.007200
     21 H8A          2.3600    -0.8850     3.8500 hc         1 C6L       0.007200
     22 H9           0.1180     0.8820     4.8990 hc         1 C6L       0.013200
     23 H9A          0.1190    -0.8870     4.8980 hc         1 C6L       0.013200
     24 H10          2.1280     0.8820     6.3400 hc         1 C6L      -0.004633
     25 H10A         2.1290    -0.8870     6.3390 hc         1 C6L      -0.004633
     26 H10B         0.8010    -0.0030     7.1050 hc         1 C6L      -0.004633
     27 HN1          2.8880    -0.0480    -1.1660 hn         1 C6L       0.153500
     28 H3           0.2510     0.5750    -2.3340 h1         1 C6L       0.054700
     29 H2           1.5270     0.5090    -4.4870 hc         1 C6L       0.037700
     30 H2A          2.9760     0.0630    -3.5760 hc         1 C6L       0.037700
     31 H1           2.7990     2.1550    -2.2690 h1         1 C6L      -0.022300
     32 H1A          1.3500     2.6020    -3.1800 h1         1 C6L      -0.022300
     33 HO3          3.2020     3.5630    -4.1030 ho         1 C6L       0.371000
@<TRIPOS>BOND
     1     1     2 2   
     2     2     3 1   
     3     2     8 1   
     4     3     4 1   
     5     3    16 1   
     6     3    17 1   
     7     4     5 1   
     8     4    18 1   
     9     4    19 1   
    10     5     6 1   
    11     5    20 1   
    12     5    21 1   
    13     6     7 1   
    14     6    22 1   
    15     6    23 1   
    16     7    24 1   
    17     7    25 1   
    18     7    26 1   
    19     8     9 1   
    20     8    27 1   
    21     9    10 1   
    22     9    13 1   
    23     9    28 1   
    24    10    11 1   
    25    10    12 1   
    26    13    14 1   
    27    13    29 1   
    28    13    30 1   
    29    14    15 1   
    30    14    31 1   
    31    14    32 1   
    32    15    33 1   
@<TRIPOS>SUBSTRUCTURE
     1 C6L         1 TEMP              0 ****  ****    0 ROOT
