@<TRIPOS>MOLECULE
C6P
   36    36     1     0     0
SMALL
bcc


@<TRIPOS>ATOM
      1 N            0.0000     0.0000     0.0000 n7         1 C6P      -0.525200
      2 C            2.0080    -1.1250    -0.8510 c          1 C6P       0.961600
      3 O            1.8740    -2.3130    -0.5870 o          1 C6P      -0.837300
      4 P           -0.9740    -3.9700    -3.4790 p5         1 C6P       0.624900
      5 OP3         -1.8260    -5.1360    -2.7540 o          1 C6P      -0.733167
      6 OP1          0.3790    -3.8930    -2.5960 o          1 C6P      -0.733167
      7 OP2         -0.7580    -4.1540    -4.9530 o          1 C6P      -0.733167
      8 OP4         -1.7470    -2.6120    -3.0640 os         1 C6P      -0.477200
      9 C5          -2.7060    -1.0740    -1.5250 ca         1 C6P      -0.082600
     10 C6          -4.0920    -1.0430    -1.5340 ca         1 C6P       0.356200
     11 N1          -4.8250     0.0840    -1.3970 nb         1 C6P      -0.642000
     12 C2          -4.1320     1.2350    -1.2460 ca         1 C6P       0.246600
     13 C2A         -4.9540     2.4740    -1.0960 c3         1 C6P      -0.022400
     14 C3          -2.7490     1.3120    -1.2240 ca         1 C6P      -0.015200
     15 O3          -2.1150     2.5040    -1.0690 oh         1 C6P      -0.503100
     16 C4          -2.0370     0.1310    -1.3670 ca         1 C6P      -0.060300
     17 C4A         -0.5360     0.1600    -1.3510 c3         1 C6P       0.166100
     18 CA           1.4410     0.0000     0.0000 c3         1 C6P       0.005500
     19 OXT          2.6950    -0.6840    -1.9320 o          1 C6P      -0.837300
     20 CB           2.0140     0.0000     1.4200 c3         1 C6P       0.166700
     21 SG           3.8250     0.2100     1.4820 sh         1 C6P      -0.405900
     22 HN          -0.3340     0.7430     0.5810 hn         1 C6P       0.189800
     23 H5M1        -2.5920    -3.1690    -1.2750 h1         1 C6P       0.024700
     24 H5M2        -1.0420    -2.3230    -1.1550 h1         1 C6P       0.024700
     25 H6          -4.6200    -1.9810    -1.6570 h4         1 C6P      -0.017900
     26 H2A1        -5.9990     2.2050    -1.0000 hc         1 C6P      -0.013967
     27 H2A2        -4.6370     3.0130    -0.2120 hc         1 C6P      -0.013967
     28 H2A3        -4.8210     3.1030    -1.9690 hc         1 C6P      -0.013967
     29 HO3         -2.0920     2.9590    -1.8950 ho         1 C6P       0.379000
     30 H4A1        -0.1980     1.1070    -1.7540 h1         1 C6P       0.056700
     31 H4A2        -0.1620    -0.6430    -1.9750 h1         1 C6P       0.056700
     32 HA           1.7530     0.9290    -0.4620 h1         1 C6P      -0.000300
     33 HB1          1.7590    -0.9390     1.8950 h1         1 C6P       0.006700
     34 HB2          1.5540     0.8070     1.9780 h1         1 C6P       0.006700
     35 HSG          4.2000     0.4470     2.7330 hs         1 C6P       0.101800
     36 C5M         -1.9870    -2.3680    -1.6830 c3         1 C6P       0.288700
@<TRIPOS>BOND
     1     1    17 1   
     2     1    18 1   
     3     1    22 1   
     4     2     3 1   
     5     2    18 1   
     6     2    19 1   
     7     4     5 1   
     8     4     6 1   
     9     4     7 1   
    10     4     8 1   
    11     8    36 1   
    12     9    10 ar  
    13     9    16 ar  
    14     9    36 1   
    15    10    11 ar  
    16    10    25 1   
    17    11    12 ar  
    18    12    13 1   
    19    12    14 ar  
    20    13    26 1   
    21    13    27 1   
    22    13    28 1   
    23    14    15 1   
    24    14    16 ar  
    25    15    29 1   
    26    16    17 1   
    27    17    30 1   
    28    17    31 1   
    29    18    20 1   
    30    18    32 1   
    31    20    21 1   
    32    20    33 1   
    33    20    34 1   
    34    21    35 1   
    35    23    36 1   
    36    24    36 1   
@<TRIPOS>SUBSTRUCTURE
     1 C6P         1 TEMP              0 ****  ****    0 ROOT
