@<TRIPOS>MOLECULE
molecule
   45    46     1     0     0
SMALL
bcc


@<TRIPOS>ATOM
      1 O4           0.0000     0.0000     0.0000 o          1 C6T      -0.749500
      2 C4           1.2170     0.0000     0.0000 c          1 C6T       0.686700
      3 C5           1.9320     0.0000     1.2220 cc         1 C6T      -0.354400
      4 C7           1.1950    -0.0010     2.5370 c3         1 C6T       0.024100
      5 C6           3.2820    -0.0000     1.1940 cd         1 C6T      -0.134400
      6 N3           1.8980    -0.0050    -1.1650 ns         1 C6T      -0.573500
      7 C2           3.2440    -0.0050    -1.1630 c          1 C6T       0.805500
      8 O2           3.8440    -0.0110    -2.2200 o          1 C6T      -0.660500
      9 N1           3.9340    -0.0010    -0.0080 n          1 C6T      -0.329000
     10 C1'          5.4000    -0.0020    -0.0390 c3         1 C6T       0.317500
     11 C2'          5.9220    -1.2820    -0.7280 c3         1 C6T      -0.153400
     12 C3'          7.1560    -0.8020    -1.5250 c3         1 C6T       0.105100
     13 O3'          8.3370    -1.4640    -1.0670 oh         1 C6T      -0.614800
     14 O4'          5.8860     1.0830    -0.8590 os         1 C6T      -0.352600
     15 C4'          7.2320     0.7110    -1.2240 c3         1 C6T       0.134100
     16 C5'          7.6800     1.4800    -2.4690 c3         1 C6T       0.220400
     17 O5'          7.8560     2.8590    -2.1380 os         1 C6T      -0.574200
     18 PA           8.3240     3.9650    -3.2120 p5         1 C6T       1.234700
     19 O1A          8.1670     5.4330    -2.5720 o          1 C6T      -0.781500
     20 O2A          7.4830     3.8620    -4.4250 o          1 C6T      -0.781500
     21 N3A          9.9350     3.7020    -3.6220 n7         1 C6T      -0.920400
     22 PB          10.4650     4.8380    -4.7430 p5         1 C6T       1.130500
     23 O1B         10.3380     6.1960    -4.1690 o          1 C6T      -0.738500
     24 O2B          9.5690     4.7330    -6.0770 o          1 C6T      -0.738500
     25 C3B         12.2110     4.5150    -5.1570 c3         1 C6T      -0.423800
     26 PG          12.7850     5.7460    -6.3730 p5         1 C6T       1.106700
     27 O2G         11.9610     5.6510    -7.5990 o          1 C6T      -0.830500
     28 O1G         12.6460     7.2240    -5.7480 o          1 C6T      -0.830500
     29 O3G         14.3270     5.4610    -6.7390 o          1 C6T      -0.830500
     30 H1           0.5750    -0.8870     2.6030 hc         1 C6T       0.008367
     31 H2           1.9100     0.0010     3.3510 hc         1 C6T       0.008367
     32 H3           0.5720     0.8820     2.6020 hc         1 C6T       0.008367
     33 H4           3.8450     0.0020     2.1190 h4         1 C6T       0.125000
     34 H5           1.4000    -0.0090    -2.0330 hn         1 C6T       0.332500
     35 H6           5.8030     0.0760     0.9630 h2         1 C6T       0.049700
     36 H7           6.2130    -2.0180     0.0120 hc         1 C6T       0.049700
     37 H8           5.1720    -1.6840    -1.3980 hc         1 C6T       0.049700
     38 H9           7.0080    -0.9690    -2.5850 h1         1 C6T       0.061700
     39 H10          8.5710    -2.1460    -1.6740 ho         1 C6T       0.385000
     40 H11          7.9080     0.8940    -0.3970 h1         1 C6T       0.054700
     41 H12          6.9260     1.3870    -3.2410 h1         1 C6T       0.034700
     42 H13          8.6170     1.0720    -2.8280 h1         1 C6T       0.034700
     43 H15         10.5710     3.3350    -2.9420 hn         1 C6T       0.352800
     44 H17         12.3050     3.5210    -5.5790 hc         1 C6T       0.025200
     45 H18         12.8140     4.5850    -4.2600 hc         1 C6T       0.025200
@<TRIPOS>BOND
     1     8     7 2
     2     7     6 1
     3     7     9 1
     4     6     2 1
     5    11    10 1
     6    11    12 1
     7    10     9 1
     8    10    14 1
     9     9     5 1
    10    13    12 1
    11     2     1 2
    12     2     3 1
    13    12    15 1
    14    14    15 1
    15     5     3 2
    16    15    16 1
    17     3     4 1
    18    23    22 1
    19    16    17 1
    20    17    18 1
    21    22    21 1
    22    22    24 1
    23    22    25 1
    24    21    18 1
    25    25    26 1
    26    18    20 1
    27    18    19 1
    28    26    27 1
    29    26    29 1
    30    26    28 1
    31     4    30 1
    32     4    31 1
    33     4    32 1
    34     5    33 1
    35     6    34 1
    36    10    35 1
    37    11    36 1
    38    11    37 1
    39    12    38 1
    40    13    39 1
    41    15    40 1
    42    16    41 1
    43    16    42 1
    44    21    43 1
    45    25    44 1
    46    25    45 1
@<TRIPOS>SUBSTRUCTURE
     1 C6T         1 TEMP              0 ****  ****    0 ROOT
