@<TRIPOS>MOLECULE
molecule
   49    52     1     0     0
SMALL
bcc


@<TRIPOS>ATOM
      1 C1           0.0000     0.0000     0.0000 ce         1 C6V      -0.177200
      2 C2           6.8210     3.5890    -2.2980 ca         1 C6V      -0.162000
      3 C3           7.4630     3.3290    -3.5060 ca         1 C6V       0.116100
      4 C13          6.3050    -2.4830    -1.3330 ca         1 C6V       0.008200
      5 C14          4.2400     0.0000     0.0000 ca         1 C6V       0.082100
      6 C15          3.5480     0.0000     1.2060 ca         1 C6V      -0.173000
      7 C16          2.1710     0.0000     1.2110 ca         1 C6V      -0.109500
      8 C17          1.4690     0.0000    -0.0000 ca         1 C6V      -0.036800
      9 C18          2.1710     0.0010    -1.2110 ca         1 C6V      -0.109500
     10 C19          3.5470     0.0060    -1.2050 ca         1 C6V      -0.173000
     11 C20         -0.6760    -0.0040    -1.1700 cf         1 C6V      -0.134200
     12 C21         -2.0930    -0.0050    -1.1710 c          1 C6V       0.859800
     13 C24          5.6330    -3.4090    -2.1340 ca         1 C6V      -0.114300
     14 C25          5.3830    -4.6780    -1.6550 ca         1 C6V      -0.143000
     15 C26          5.7980    -5.0350    -0.3820 ca         1 C6V       0.131900
     16 C27          6.4640    -4.1210     0.4180 ca         1 C6V      -0.153000
     17 C28          6.7240    -2.8510    -0.0510 ca         1 C6V      -0.074000
     18 C30          5.1820    -3.0210    -3.5190 c3         1 C6V       0.454900
     19 C4           7.6770     2.0260    -3.9090 ca         1 C6V      -0.130000
     20 C5           7.2500     0.9630    -3.1080 ca         1 C6V      -0.011100
     21 C6           6.6050     1.2240    -1.8940 ca         1 C6V      -0.099800
     22 C7           6.4040     2.5660    -1.5020 ca         1 C6V      -0.056000
     23 S8           7.3810    -0.7730    -3.3560 ss         1 C6V      -0.032500
     24 C9           6.5740    -1.1230    -1.8390 cd         1 C6V      -0.029600
     25 C10          6.2360     0.0000    -1.2010 cc         1 C6V       0.141900
     26 O22         -2.7020    -0.0010    -0.1170 o          1 C6V      -0.842300
     27 O23         -2.7680    -0.0100    -2.3390 o          1 C6V      -0.842300
     28 F29          5.5500    -6.2800     0.0800 f          1 C6V      -0.141900
     29 F31          6.2960    -2.9020    -4.3560 f          1 C6V      -0.224300
     30 C32          4.2440    -4.0980    -4.0690 c3         1 C6V      -0.136100
     31 F33          4.5070    -1.7980    -3.4630 f          1 C6V      -0.224300
     32 H1          -0.5410     0.0030     0.9380 ha         1 C6V       0.153000
     33 H2           6.6560     4.6130    -1.9870 ha         1 C6V       0.141000
     34 H3           4.0930    -0.0020     2.1420 ha         1 C6V       0.132500
     35 H4           1.6330     0.0000     2.1510 ha         1 C6V       0.142500
     36 H5           1.6330     0.0060    -2.1510 ha         1 C6V       0.142500
     37 H6           4.0920     0.0060    -2.1420 ha         1 C6V       0.132500
     38 H7          -0.1340    -0.0080    -2.1080 ha         1 C6V       0.104000
     39 H8           4.8620    -5.3970    -2.2760 ha         1 C6V       0.153000
     40 H9           6.7870    -4.4060     1.4120 ha         1 C6V       0.147000
     41 H10          7.2450    -2.1370     0.5750 ha         1 C6V       0.155000
     42 H11          8.1770     1.8270    -4.8490 ha         1 C6V       0.141000
     43 H12          5.9060     2.7840    -0.5650 ha         1 C6V       0.150000
     44 H13          8.7620     4.5950    -4.0540 ho         1 C6V       0.415000
     45 H15          3.4350    -4.2640    -3.3680 hc         1 C6V       0.064700
     46 H16          4.7950    -5.0200    -4.2090 hc         1 C6V       0.064700
     47 H17          3.8370    -3.7720    -5.0180 hc         1 C6V       0.064700
     48 O12          5.5970     0.0000    -0.0000 os         1 C6V      -0.248200
     49 O11          7.8800     4.3580    -4.2890 oh         1 C6V      -0.521100
@<TRIPOS>BOND
     1    26    12 1
     2    27    12 1
     3    12    11 1
     4    11     1 2
     5     1     8 1
     6     8     7 ar
     7     8     9 ar
     8     7     6 ar
     9     9    10 ar
    10     6     5 ar
    11    10     5 ar
    12     5    48 1
    13    16    17 ar
    14    16    15 ar
    15    28    15 1
    16    17     4 ar
    17    15    14 ar
    18    48    25 1
    19    25    21 1
    20    25    24 2
    21    22    21 ar
    22    22     2 ar
    23     4    24 1
    24     4    13 ar
    25    14    13 ar
    26    21    20 ar
    27    24    23 1
    28     2     3 ar
    29    13    18 1
    30    20    23 1
    31    20    19 ar
    32     3    19 ar
    33     3    49 1
    34    29    18 1
    35    18    30 1
    36    18    31 1
    37     1    32 1
    38     2    33 1
    39     6    34 1
    40     7    35 1
    41     9    36 1
    42    10    37 1
    43    11    38 1
    44    14    39 1
    45    16    40 1
    46    17    41 1
    47    19    42 1
    48    22    43 1
    49    49    44 1
    50    30    45 1
    51    30    46 1
    52    30    47 1
@<TRIPOS>SUBSTRUCTURE
     1 C6V         1 TEMP              0 ****  ****    0 ROOT
