@<TRIPOS>MOLECULE
molecule
   44    44     1     0     0
SMALL
bcc


@<TRIPOS>ATOM
      1 C2           0.0000     0.0000     0.0000 c3         1 C6W       0.098100
      2 C3           1.9590     0.0000     1.3850 c3         1 C6W       0.098100
      3 C1           1.9580    -1.2010    -0.6920 c3         1 C6W       0.098100
      4 C4           1.9590     1.1980    -0.6940 c3         1 C6W       0.093800
      5 C5           1.3550     2.4460    -0.0460 c3         1 C6W       0.202400
      6 C10          4.4610     4.8790     8.6340 ca         1 C6W      -0.126000
      7 CAI          2.6390     3.4660     9.2790 ca         1 C6W      -0.126000
      8 C13          3.3640     3.0280    10.3700 ca         1 C6W      -0.129000
      9 C6           1.8750     4.4410     4.8130 c3         1 C6W       0.226400
     10 C7           2.6770     3.9570     6.0220 c3         1 C6W      -0.086400
     11 C9           3.1860     4.3910     8.4100 ca         1 C6W      -0.073300
     12 O3           1.9440     5.1460     1.6500 o          1 C6W      -0.797000
     13 P            1.4600     3.8070     2.2500 p5         1 C6W       1.327800
     14 O4          -0.0780     3.8370     2.4030 o          1 C6W      -0.797000
     15 O1           1.8800     2.5980     1.2750 os         1 C6W      -0.611200
     16 N            1.4690     0.0000     0.0000 n4         1 C6W      -0.569800
     17 O2           2.1380     3.5920     3.6950 os         1 C6W      -0.614200
     18 C8           2.3960     4.8680     7.2190 c3         1 C6W      -0.038100
     19 C12          4.6380     3.5160    10.5940 ca         1 C6W      -0.138000
     20 C11          5.1860     4.4420     9.7260 ca         1 C6W      -0.129000
     21 H11C         1.5920    -1.2040    -1.7120 hx         1 C6W       0.095256
     22 H12C         3.0410    -1.1990    -0.6960 hx         1 C6W       0.095256
     23 H13C         1.6000    -2.0850    -0.1770 hx         1 C6W       0.095256
     24 H21C        -0.3610     0.6560     0.7820 hx         1 C6W       0.095256
     25 H22C        -0.3610     0.3490    -0.9600 hx         1 C6W       0.095256
     26 H23C        -0.3610    -1.0060     0.1770 hx         1 C6W       0.095256
     27 H31C         2.0040    -1.0180     1.7520 hx         1 C6W       0.095256
     28 H32C         1.2860     0.5780     2.0060 hx         1 C6W       0.095256
     29 H33C         2.9480     0.4400     1.4180 hx         1 C6W       0.095256
     30 H41C         1.6690     1.1560    -1.7360 hx         1 C6W       0.093200
     31 H42C         3.0390     1.2400    -0.6210 hx         1 C6W       0.093200
     32 H51C         0.2780     2.3420     0.0030 h1         1 C6W       0.070700
     33 H52C         1.6070     3.3180    -0.6380 h1         1 C6W       0.070700
     34 H11          6.1850     4.8240     9.9020 ha         1 C6W       0.125000
     35 H12          5.2070     3.1730    11.4500 ha         1 C6W       0.124000
     36 H61C         0.8170     4.4130     5.0470 h1         1 C6W       0.037200
     37 H62C         2.1630     5.4570     4.5710 h1         1 C6W       0.037200
     38 H71C         2.3880     2.9420     6.2640 hc         1 C6W       0.046200
     39 H72C         3.7350     3.9850     5.7880 hc         1 C6W       0.046200
     40 H81C         1.3380     4.8400     7.4530 hc         1 C6W       0.051200
     41 H82C         2.6860     5.8830     6.9770 hc         1 C6W       0.051200
     42 HAI          1.6400     3.0830     9.1040 ha         1 C6W       0.131500
     43 H13          2.9350     2.3030    11.0510 ha         1 C6W       0.125000
     44 H10          4.8900     5.6040     7.9540 ha         1 C6W       0.131500
@<TRIPOS>BOND
     1     3    16 1
     2     1    16 1
     3     2    16 1
     4     4     5 1
     5     4    16 1
     6     5    15 1
     7     6    20 ar
     8     6    11 ar
     9    20    19 ar
    10     9    10 1
    11     9    17 1
    12    10    18 1
    13    11    18 1
    14    11     7 ar
    15    12    13 1
    16    13    14 1
    17    13    15 1
    18    13    17 1
    19    19     8 ar
    20     8     7 ar
    21     3    21 1
    22     3    22 1
    23     3    23 1
    24     1    24 1
    25     1    25 1
    26     1    26 1
    27     2    27 1
    28     2    28 1
    29     2    29 1
    30     4    30 1
    31     4    31 1
    32     5    32 1
    33     5    33 1
    34     6    44 1
    35    20    34 1
    36    19    35 1
    37     9    36 1
    38     9    37 1
    39    10    38 1
    40    10    39 1
    41    18    40 1
    42    18    41 1
    43     7    42 1
    44     8    43 1
@<TRIPOS>SUBSTRUCTURE
     1 C6W         1 TEMP              0 ****  ****    0 ROOT
