@<TRIPOS>MOLECULE
molecule
   24    25     1     0     0
SMALL
bcc


@<TRIPOS>ATOM
      1 C2           0.0000     0.0000     0.0000 ca         1 C6Z       0.038400
      2 C3           1.3840     0.0000     0.0000 ca         1 C6Z      -0.118000
      3 C4           2.0740     0.0000     1.1970 ca         1 C6Z      -0.087000
      4 C5           1.3840     0.0000     2.3950 ca         1 C6Z      -0.073300
      5 C6           0.0010    -0.0010     2.3950 ca         1 C6Z       0.040400
      6 C8          -0.6920     0.0010     1.1980 ca         1 C6Z      -0.115000
      7 C15          1.7690     2.9460     6.0180 ca         1 C6Z      -0.169300
      8 C16          1.7150     1.6450     5.5440 ca         1 C6Z      -0.202300
      9 Cl1         -0.8680     0.0080    -1.5040 cl         1 C6Z      -0.097400
     10 Cl7         -0.8660    -0.0020     3.8990 cl         1 C6Z      -0.105400
     11 C9           2.1390     0.0000     3.6990 c3         1 C6Z      -0.077400
     12 C10          2.1770     1.3990     4.2570 ca         1 C6Z       0.367600
     13 N11          2.6490     2.3880     3.5260 nb         1 C6Z      -0.313000
     14 N12          2.7010     3.5960     3.9570 nb         1 C6Z      -0.294000
     15 C13          2.2840     3.9280     5.1710 ca         1 C6Z       0.465600
     16 S14          2.3740     5.6030     5.7090 sh         1 C6Z      -0.395100
     17 H1           1.9260    -0.0000    -0.9380 ha         1 C6Z       0.150000
     18 H2           3.1580     0.0000     1.1970 ha         1 C6Z       0.150000
     19 H3          -1.7750     0.0000     1.1990 ha         1 C6Z       0.158000
     20 H5           1.3240     0.8430     6.1590 ha         1 C6Z       0.154000
     21 H6           1.6420    -0.6560     4.4040 hc         1 C6Z       0.071700
     22 H7           3.1500    -0.3490     3.5320 hc         1 C6Z       0.071700
     23 H8           3.6290     6.0270     5.6310 hs         1 C6Z       0.218800
     24 H4           1.4220     3.1930     7.0140 ha         1 C6Z       0.162000
@<TRIPOS>BOND
     1     2     3 ar
     2     2     1 ar
     3     3     4 ar
     4     9     1 1
     5     1     6 ar
     6     4    11 1
     7     4     5 ar
     8    11    12 1
     9     8    12 ar
    10     8     7 ar
    11     6     5 ar
    12     5    10 1
    13    12    13 ar
    14     7    15 ar
    15    13    14 ar
    16    15    14 ar
    17    15    16 1
    18     2    17 1
    19     3    18 1
    20     6    19 1
    21     7    24 1
    22     8    20 1
    23    11    21 1
    24    11    22 1
    25    16    23 1
@<TRIPOS>SUBSTRUCTURE
     1 C6Z         1 TEMP              0 ****  ****    0 ROOT
