@<TRIPOS>MOLECULE
C70
   45    48     1     0     0
SMALL
bcc


@<TRIPOS>ATOM
      1 C01          0.0000     0.0000     0.0000 cc         1 C70      -0.115200
      2 C02          1.3350     0.0000     0.0000 cd         1 C70       0.124400
      3 S03          1.9570     0.0000     1.6410 ss         1 C70      -0.085500
      4 C04          0.3320     0.0000     2.3090 ca         1 C70       0.003600
      5 C05         -0.6030    -0.0000     1.2650 ca         1 C70      -0.227100
      6 C06         -0.1450     0.0010     3.6370 ca         1 C70       0.149800
      7 N07         -1.4510     0.0020     3.8630 nb         1 C70      -0.211000
      8 N08         -2.3120     0.0020     2.9130 nb         1 C70      -0.369000
      9 C09         -1.9750     0.0040     1.6340 ca         1 C70       0.555200
     10 N10         -2.9550     0.0100     0.6570 nu         1 C70      -0.381900
     11 C11          2.1750    -0.0010    -1.2170 ca         1 C70      -0.061800
     12 C12          0.8040     0.0010     4.7670 c          1 C70       0.260600
     13 C13         -4.3690     0.0160     1.0410 c3         1 C70       0.100500
     14 C14         -4.8370    -1.4200     1.2870 c3         1 C70       0.135800
     15 N15         -6.2600    -1.4180     1.6500 n7         1 C70      -0.566200
     16 C16         -7.0840    -0.8740     0.5630 c3         1 C70       0.140800
     17 C17         -6.6830     0.5790     0.2950 c3         1 C70      -0.014400
     18 C18         -5.2020     0.6310    -0.0880 c3         1 C70      -0.035400
     19 C19          3.5670    -0.0000    -1.1070 ca         1 C70      -0.067500
     20 C20          4.3450    -0.0010    -2.2460 ca         1 C70      -0.090500
     21 C21          3.7490    -0.0020    -3.4960 ca         1 C70      -0.019600
     22 C22          2.3690    -0.0020    -3.6110 ca         1 C70      -0.090500
     23 C23          1.5800    -0.0070    -2.4790 ca         1 C70      -0.067500
     24 Cl24         4.7350    -0.0030    -4.9250 cl         1 C70       0.014600
     25 N25          0.3430     0.0020     6.0340 nz         1 C70       0.215600
     26 O26          2.0010     0.0000     4.5560 o          1 C70      -0.446100
     27 H01         -0.5870     0.1290    -0.9010 ha         1 C70       0.136000
     28 HN10        -2.6980     0.0490    -0.3090 hn         1 C70       0.305800
     29 H13         -4.5020     0.5980     1.9450 h1         1 C70       0.077700
     30 H14         -4.6970    -2.0040     0.3860 h1         1 C70       0.012700
     31 H14A        -4.2610    -1.8520     2.0960 h1         1 C70       0.012700
     32 HN15        -6.5540    -2.3520     1.8550 hn         1 C70       0.263800
     33 H16         -6.9290    -1.4610    -0.3340 h1         1 C70       0.015200
     34 H16A        -8.1280    -0.9120     0.8490 h1         1 C70       0.015200
     35 H17         -7.2800     0.9730    -0.5190 hc         1 C70       0.030200
     36 H17A        -6.8460     1.1690     1.1880 hc         1 C70       0.030200
     37 H18         -4.9040     1.6620    -0.2360 hc         1 C70       0.021200
     38 H18A        -5.0450     0.0690    -1.0000 hc         1 C70       0.021200
     39 H19          4.0340     0.0000    -0.1300 ha         1 C70       0.111000
     40 H20          5.4260    -0.0010    -2.1620 ha         1 C70       0.124500
     41 H22          1.9090    -0.0050    -4.5910 ha         1 C70       0.124500
     42 H23          0.5000    -0.0070    -2.5700 ha         1 C70       0.111000
     43 HN25        -0.2200     0.8160     6.1840 hn         1 C70       0.245133
     44 HN2A         1.1160     0.0090     6.6700 hn         1 C70       0.245133
     45 H253        -0.2090    -0.8190     6.1890 hn         1 C70       0.245133
@<TRIPOS>BOND
     1     1     2 2   
     2     1     5 1   
     3     1    27 1   
     4     2     3 1   
     5     2    11 1   
     6     3     4 1   
     7     4     5 ar  
     8     4     6 ar  
     9     5     9 ar  
    10     6     7 ar  
    11     6    12 1   
    12     7     8 ar  
    13     8     9 ar  
    14     9    10 1   
    15    10    13 1   
    16    10    28 1   
    17    11    19 ar  
    18    11    23 ar  
    19    12    25 1   
    20    12    26 2   
    21    13    14 1   
    22    13    18 1   
    23    13    29 1   
    24    14    15 1   
    25    14    30 1   
    26    14    31 1   
    27    15    16 1   
    28    15    32 1   
    29    16    17 1   
    30    16    33 1   
    31    16    34 1   
    32    17    18 1   
    33    17    35 1   
    34    17    36 1   
    35    18    37 1   
    36    18    38 1   
    37    19    20 ar  
    38    19    39 1   
    39    20    21 ar  
    40    20    40 1   
    41    21    22 ar  
    42    21    24 1   
    43    22    23 ar  
    44    22    41 1   
    45    23    42 1   
    46    25    43 1   
    47    25    44 1   
    48    25    45 1   
@<TRIPOS>SUBSTRUCTURE
     1 C70         1 TEMP              0 ****  ****    0 ROOT
