@<TRIPOS>MOLECULE
molecule
   71    73     1     0     0
SMALL
bcc


@<TRIPOS>ATOM
      1 C2           1.5300     0.0000     0.0000 c3         1 C71      -0.074400
      2 C5           1.0300     3.4530     0.6650 c2         1 C71       0.813200
      3 C6           0.6230     4.6790    -0.1100 c3         1 C71      -0.232400
      4 C1           0.0000     0.0000     0.0000 c3         1 C71      -0.063000
      5 C3           2.0400     1.2170     0.7730 c3         1 C71       0.129500
      6 C9          -0.2510     4.1300     4.3730 ca         1 C71      -0.285500
      7 N4           1.7060     2.4390     0.0380 nu         1 C71      -0.826200
      8 N7           0.7430     3.3570     1.9230 ne         1 C71      -0.900300
      9 S8          -0.1000     4.5680     2.6730 sy         1 C71       1.464700
     10 O10          0.7490     5.7070     2.6420 o          1 C71      -0.651300
     11 O11         -1.4170     4.5090     2.1420 o          1 C71      -0.651300
     12 C12          3.5360     1.1190     0.9330 c          1 C71       0.638100
     13 N13          4.0780     0.0710     1.5830 ns         1 C71      -0.616900
     14 O14          4.2520     1.9860     0.4780 o          1 C71      -0.599100
     15 C15          5.5290    -0.0060     1.7670 c3         1 C71       0.086400
     16 C17          6.0230     1.2790     2.4250 c3         1 C71      -0.074900
     17 C18          5.2090     1.5670     3.6870 c3         1 C71      -0.206100
     18 S19          5.5170     0.2630     4.9120 s6         1 C71       1.108000
     19 C20          5.0340    -1.1800     3.9220 c3         1 C71      -0.206100
     20 C21          5.8630    -1.2120     2.6430 c3         1 C71      -0.074900
     21 C22         -1.3890     3.4890     4.8240 ca         1 C71      -0.028500
     22 C23         -1.5050     3.1420     6.1570 ca         1 C71      -0.150500
     23 C24         -0.4860     3.4440     7.0410 ca         1 C71      -0.068000
     24 C25          0.6500     4.0900     6.5910 ca         1 C71      -0.150500
     25 C26          0.7670     4.4340     5.2570 ca         1 C71      -0.028500
     26 C27         -0.5280     0.0000     1.4500 c3         1 C71      -0.077900
     27 C28         -1.7830    -0.9070     1.3960 c3         1 C71      -0.081900
     28 C29         -1.3570    -2.0240     0.4100 c3         1 C71      -0.081900
     29 C30         -0.5270    -1.2850    -0.6610 c3         1 C71      -0.077900
     30 C31         -0.5240     1.2280    -0.7490 c3         1 C71      -0.076100
     31 O32          6.9110     0.1960     5.1780 o          1 C71      -0.579300
     32 O33          4.6020     0.4140     5.9890 o          1 C71      -0.579300
     33 C16          6.2050    -0.1690     0.4040 c3         1 C71       0.082800
     34 H21          1.8910    -0.9050     0.4730 hc         1 C71       0.031700
     35 H22A         1.8910     0.0430    -1.0200 hc         1 C71       0.031700
     36 H61          0.8850     4.5510    -1.1530 hc         1 C71       0.093367
     37 H62         -0.4460     4.8240    -0.0210 hc         1 C71       0.093367
     38 H63          1.1390     5.5450     0.2880 hc         1 C71       0.093367
     39 H3           1.5740     1.2460     1.7510 h1         1 C71       0.141700
     40 HN4          2.2690     2.4210    -0.7890 hn         1 C71       0.457800
     41 HN13         3.4930    -0.6750     1.9040 hn         1 C71       0.334500
     42 H171         5.9100     2.1030     1.7300 hc         1 C71       0.078200
     43 H172         7.0670     1.1670     2.6900 hc         1 C71       0.078200
     44 H181         5.5080     2.5240     4.0980 h1         1 C71       0.117200
     45 H182         4.1550     1.5880     3.4390 h1         1 C71       0.117200
     46 H201         3.9830    -1.1090     3.6690 h1         1 C71       0.117200
     47 H202         5.2150    -2.0840     4.4910 h1         1 C71       0.117200
     48 H211         5.6430    -2.1210     2.0970 hc         1 C71       0.078200
     49 H212         6.9150    -1.1870     2.8980 hc         1 C71       0.078200
     50 H22         -2.1880     3.2520     4.1310 ha         1 C71       0.150000
     51 H23         -2.3960     2.6370     6.5100 ha         1 C71       0.140500
     52 H24         -0.5770     3.1730     8.0860 ha         1 C71       0.139000
     53 H25          1.4480     4.3280     7.2840 ha         1 C71       0.140500
     54 H26          1.6570     4.9410     4.9050 ha         1 C71       0.150000
     55 H271         0.2120    -0.4190     2.1210 hc         1 C71       0.045950
     56 H272        -0.8000     1.0040     1.7530 hc         1 C71       0.045950
     57 H281        -2.6340    -0.3600     1.0080 hc         1 C71       0.052700
     58 H282        -1.9970    -1.3220     2.3730 hc         1 C71       0.052700
     59 H291        -0.7480    -2.7620     0.9170 hc         1 C71       0.052700
     60 H292        -2.2290    -2.4840    -0.0380 hc         1 C71       0.052700
     61 H301        -1.1560    -1.0350    -1.5070 hc         1 C71       0.045950
     62 H302         0.3030    -1.9050    -0.9780 hc         1 C71       0.045950
     63 H311        -1.4680     0.9860    -1.2220 hc         1 C71       0.042033
     64 H312        -0.6680     2.0430    -0.0500 hc         1 C71       0.042033
     65 H313         0.1940     1.5230    -1.5050 hc         1 C71       0.042033
     66 H341         4.8850    -1.7000     0.1720 hn         1 C71       0.456467
     67 H342         6.4450    -2.1430    -0.0270 hn         1 C71       0.456467
     68 H161         7.2800    -0.1840     0.5330 hx         1 C71       0.130700
     69 H162         5.9300     0.6600    -0.2370 hx         1 C71       0.130700
     70 N34          5.7680    -1.4290    -0.2120 nz         1 C71      -0.809600
     71 H343         5.6780    -1.3040    -1.2010 hn         1 C71       0.456467
@<TRIPOS>BOND
     1     1     4 1
     2     1     5 1
     3     1    34 1
     4     1    35 1
     5     2     3 1
     6     2     7 1
     7     2     8 2
     8     3    36 1
     9     3    37 1
    10     3    38 1
    11     4    26 1
    12     4    29 1
    13     4    30 1
    14     5     7 1
    15     5    12 1
    16     5    39 1
    17     6     9 1
    18     6    21 ar
    19     6    25 ar
    20     7    40 1
    21     8     9 1
    22     9    10 2
    23     9    11 2
    24    12    13 1
    25    12    14 2
    26    13    15 1
    27    13    41 1
    28    15    16 1
    29    15    20 1
    30    15    33 1
    31    16    17 1
    32    16    42 1
    33    16    43 1
    34    17    18 1
    35    17    44 1
    36    17    45 1
    37    18    19 1
    38    18    31 2
    39    18    32 2
    40    19    20 1
    41    19    46 1
    42    19    47 1
    43    20    48 1
    44    20    49 1
    45    21    22 ar
    46    21    50 1
    47    22    23 ar
    48    22    51 1
    49    23    24 ar
    50    23    52 1
    51    24    25 ar
    52    24    53 1
    53    25    54 1
    54    26    27 1
    55    26    55 1
    56    26    56 1
    57    27    28 1
    58    27    57 1
    59    27    58 1
    60    28    29 1
    61    28    59 1
    62    28    60 1
    63    29    61 1
    64    29    62 1
    65    30    63 1
    66    30    64 1
    67    30    65 1
    68    70    33 1
    69    70    66 1
    70    70    67 1
    71    33    68 1
    72    33    69 1
    73    71    70 1
@<TRIPOS>SUBSTRUCTURE
     1 C71         1 TEMP              0 ****  ****    0 ROOT
