@<TRIPOS>MOLECULE
C72
   46    49     1     0     0
SMALL
bcc


@<TRIPOS>ATOM
      1 C01          0.0000     0.0000     0.0000 cc         1 C72      -0.099200
      2 C02          1.3320     0.0000     0.0000 cd         1 C72       0.102400
      3 S03          1.9670     0.0000     1.6340 ss         1 C72      -0.103500
      4 C04          0.3570    -0.0000     2.3320 ca         1 C72       0.142900
      5 C05         -0.6040    -0.0000     1.3180 ca         1 C72      -0.267100
      6 C06         -0.0810     0.0010     3.6810 ca         1 C72      -0.406900
      7 C07         -1.4470     0.0020     3.9480 ca         1 C72       0.522200
      8 N08         -2.3280     0.0020     2.9660 nb         1 C72      -0.651000
      9 C09         -1.9720     0.0040     1.6940 ca         1 C72       0.604200
     10 N10         -2.9470     0.0100     0.7160 nu         1 C72      -0.391900
     11 C11          2.1670    -0.0000    -1.2210 ca         1 C72      -0.053800
     12 C12          0.8950     0.0010     4.7820 c          1 C72       0.353700
     13 C13         -4.3630     0.0150     1.0920 c3         1 C72       0.102500
     14 C14         -4.8310    -1.4210     1.3380 c3         1 C72       0.135800
     15 N15         -6.2560    -1.4190     1.6950 n7         1 C72      -0.569200
     16 C16         -7.0760    -0.8760     0.6040 c3         1 C72       0.140800
     17 C17         -6.6750     0.5770     0.3370 c3         1 C72      -0.014400
     18 C18         -5.1920     0.6310    -0.0390 c3         1 C72      -0.035400
     19 C19          1.5660     0.0040    -2.4810 ca         1 C72      -0.071500
     20 C20          2.3500     0.0040    -3.6150 ca         1 C72      -0.090000
     21 C21          3.7310    -0.0020    -3.5080 ca         1 C72      -0.022600
     22 C22          4.3320    -0.0080    -2.2600 ca         1 C72      -0.090000
     23 C23          3.5600    -0.0010    -1.1180 ca         1 C72      -0.071500
     24 Cl24         4.7100    -0.0040    -4.9400 cl         1 C72       0.011600
     25 N25          0.4680     0.0020     6.0610 nz         1 C72       0.204600
     26 O26          2.0870    -0.0010     4.5390 o          1 C72      -0.458100
     27 H01         -0.5850     0.0000    -0.9120 ha         1 C72       0.134000
     28 H07         -1.7910     0.0000     4.9750 h4         1 C72      -0.051900
     29 HN10        -2.6860     0.0250    -0.2500 hn         1 C72       0.305800
     30 H13         -4.5000     0.5970     1.9960 h1         1 C72       0.074700
     31 H14         -4.2580    -1.8520     2.1490 h1         1 C72       0.012200
     32 H14A        -4.6870    -2.0050     0.4370 h1         1 C72       0.012200
     33 HN15        -6.5500    -2.3530     1.9010 hn         1 C72       0.262800
     34 H16         -6.9170    -1.4640    -0.2920 h1         1 C72       0.015200
     35 H16A        -8.1210    -0.9150     0.8860 h1         1 C72       0.015200
     36 H17         -7.2680     0.9700    -0.4790 hc         1 C72       0.029700
     37 H17A        -6.8420     1.1670     1.2300 hc         1 C72       0.029700
     38 H18         -4.8940     1.6620    -0.1840 hc         1 C72       0.021700
     39 H18A        -5.0300     0.0700    -0.9510 hc         1 C72       0.021700
     40 H19          0.4860     0.0090    -2.5670 ha         1 C72       0.111000
     41 H20          1.8840     0.0080    -4.5930 ha         1 C72       0.123500
     42 H22          5.4120    -0.0100    -2.1820 ha         1 C72       0.123500
     43 H23          4.0320    -0.0050    -0.1430 ha         1 C72       0.111000
     44 HN25         1.2580     0.0030     6.6760 hn         1 C72       0.241467
     45 HN2A        -0.0850     0.8200     6.2270 hn         1 C72       0.241467
     46 H253        -0.0850    -0.8140     6.2290 hn         1 C72       0.241467
@<TRIPOS>BOND
     1     1     2 2   
     2     1     5 1   
     3     1    27 1   
     4     2     3 1   
     5     2    11 1   
     6     3     4 1   
     7     4     5 ar  
     8     4     6 ar  
     9     5     9 ar  
    10     6     7 ar  
    11     6    12 1   
    12     7     8 ar  
    13     7    28 1   
    14     8     9 ar  
    15     9    10 1   
    16    10    13 1   
    17    10    29 1   
    18    11    19 ar  
    19    11    23 ar  
    20    12    25 1   
    21    12    26 2   
    22    13    14 1   
    23    13    18 1   
    24    13    30 1   
    25    14    15 1   
    26    14    31 1   
    27    14    32 1   
    28    15    16 1   
    29    15    33 1   
    30    16    17 1   
    31    16    34 1   
    32    16    35 1   
    33    17    18 1   
    34    17    36 1   
    35    17    37 1   
    36    18    38 1   
    37    18    39 1   
    38    19    20 ar  
    39    19    40 1   
    40    20    21 ar  
    41    20    41 1   
    42    21    22 ar  
    43    21    24 1   
    44    22    23 ar  
    45    22    42 1   
    46    23    43 1   
    47    25    44 1   
    48    25    45 1   
    49    25    46 1   
@<TRIPOS>SUBSTRUCTURE
     1 C72         1 TEMP              0 ****  ****    0 ROOT
