@<TRIPOS>MOLECULE
C73
   45    47     1     0     0
SMALL
bcc


@<TRIPOS>ATOM
      1 S01          0.0000     0.0000     0.0000 ss         1 C73      -0.095800
      2 C02          1.7060     0.0000     0.0000 cc         1 C73      -0.077500
      3 C03          2.1860     0.0000     1.2870 cd         1 C73      -0.157600
      4 C04          1.1830     0.0010     2.2600 cd         1 C73      -0.128000
      5 C05         -0.0580     0.0010     1.7560 cc         1 C73       0.122900
      6 N06          2.4960    -0.0000    -1.1380 ns         1 C73       0.136900
      7 C07          1.9210    -0.0000    -2.3570 c          1 C73       0.224100
      8 N08          2.6900    -0.0010    -3.4650 nz         1 C73       0.232600
      9 O09          0.7100    -0.0000    -2.4590 o          1 C73      -0.533100
     10 C10          3.6170     0.0000     1.6090 c          1 C73       0.617700
     11 O11          4.4420    -0.0010     0.7140 o          1 C73      -0.710100
     12 N12          4.0170     0.0010     2.8960 ns         1 C73      -0.132900
     13 C13          5.4460     0.0000     3.2190 c3         1 C73       0.003700
     14 C14          5.9710    -1.4380     3.2130 c3         1 C73       0.132800
     15 N15          7.3990    -1.4400     3.5570 n7         1 C73      -0.568200
     16 C16          7.6220    -0.9030     4.9050 c3         1 C73       0.141800
     17 C17          7.1460     0.5510     4.9610 c3         1 C73      -0.015400
     18 C18          5.6570     0.6100     4.6070 c3         1 C73      -0.036400
     19 C19         -1.2980    -0.0000     2.5610 ca         1 C73      -0.048000
     20 C20         -1.2300     0.0060     3.9540 ca         1 C73      -0.068500
     21 C21         -2.3900     0.0060     4.7000 ca         1 C73      -0.090500
     22 C22         -3.6230    -0.0010     4.0680 ca         1 C73      -0.019600
     23 C23         -3.6970    -0.0070     2.6850 ca         1 C73      -0.090500
     24 C24         -2.5440    -0.0010     1.9290 ca         1 C73      -0.068500
     25 Cl25        -5.0790    -0.0000     5.0120 cl         1 C73       0.014600
     26 H04          1.3900     0.0010     3.3230 ha         1 C73       0.142000
     27 HN06         3.4930     0.0070    -1.0560 hn         1 C73       0.219500
     28 HN08         3.2670     0.8170    -3.4720 hn         1 C73       0.240800
     29 HN0A         2.1050    -0.0040    -4.2770 hn         1 C73       0.240800
     30 HN12         3.3380     0.0200     3.6310 hn         1 C73       0.182500
     31 H13          5.9880     0.5840     2.4840 h1         1 C73       0.071700
     32 H14          5.4240    -2.0230     3.9420 h1         1 C73       0.012200
     33 H14A         5.8380    -1.8650     2.2260 h1         1 C73       0.012200
     34 HN15         7.7520    -2.3760     3.5080 hn         1 C73       0.260800
     35 H16          7.0640    -1.4910     5.6240 h1         1 C73       0.013200
     36 H16A         8.6790    -0.9440     5.1390 h1         1 C73       0.013200
     37 H17          7.2950     0.9410     5.9600 hc         1 C73       0.027700
     38 H17A         7.7100     1.1420     4.2490 hc         1 C73       0.027700
     39 H18          5.0900     0.0470     5.3380 hc         1 C73       0.019200
     40 H18A         5.3280     1.6420     4.6020 hc         1 C73       0.019200
     41 H20         -0.2670     0.0120     4.4500 ha         1 C73       0.110500
     42 H21         -2.3370     0.0110     5.7820 ha         1 C73       0.124500
     43 H23         -4.6640    -0.0100     2.1960 ha         1 C73       0.124500
     44 H24         -2.6040    -0.0060     0.8470 ha         1 C73       0.110500
     45 H083         3.2690    -0.8180    -3.4680 hn         1 C73       0.240800
@<TRIPOS>BOND
     1     1     2 1   
     2     1     5 1   
     3     2     3 2   
     4     2     6 1   
     5     3     4 1   
     6     3    10 1   
     7     4     5 2   
     8     4    26 1   
     9     5    19 1   
    10     6     7 1   
    11     6    27 1   
    12     7     8 1   
    13     7     9 2   
    14     8    28 1   
    15     8    29 1   
    16     8    45 1   
    17    10    11 2   
    18    10    12 1   
    19    12    13 1   
    20    12    30 1   
    21    13    14 1   
    22    13    18 1   
    23    13    31 1   
    24    14    15 1   
    25    14    32 1   
    26    14    33 1   
    27    15    16 1   
    28    15    34 1   
    29    16    17 1   
    30    16    35 1   
    31    16    36 1   
    32    17    18 1   
    33    17    37 1   
    34    17    38 1   
    35    18    39 1   
    36    18    40 1   
    37    19    20 ar  
    38    19    24 ar  
    39    20    21 ar  
    40    20    41 1   
    41    21    22 ar  
    42    21    42 1   
    43    22    23 ar  
    44    22    25 1   
    45    23    24 ar  
    46    23    43 1   
    47    24    44 1   
@<TRIPOS>SUBSTRUCTURE
     1 C73         1 TEMP              0 ****  ****    0 ROOT
