@<TRIPOS>MOLECULE
C75
   38    40     1     0     0
SMALL
bcc


@<TRIPOS>ATOM
      1 O4          0.2670    0.0430   -0.0310 o         1 C75     -0.574300
      2 S2          1.6240    0.2810   -0.0280 sy        1 C75      1.502200
      3 O3          2.4080   -0.0250    1.0630 o         1 C75     -0.574300
      4 N6          2.1760   -1.1320   -1.2890 n4        1 C75     -0.686900
      5 C61         2.7090   -2.3140   -0.6050 c3        1 C75      0.081100
      6 C16         2.1120    1.5070   -0.9020 ca        1 C75     -0.599500
      7 C15         1.2500    2.1360   -1.8370 ca        1 C75      0.022500
      8 C14         1.6450    3.2460   -2.5530 ca        1 C75     -0.158500
      9 C13         2.9330    3.7990   -2.3640 ca        1 C75      0.051500
     10 C18         3.8030    3.1890   -1.4310 ca        1 C75     -0.158500
     11 C17         3.3980    2.0780   -0.7230 ca        1 C75      0.022500
     12 C4          3.3520    4.9510   -3.0910 cc        1 C75      0.208200
     13 O2          2.4430    5.4850   -4.0260 os        1 C75     -0.348800
     14 C3          4.5190    5.7220   -3.0840 cd        1 C75     -0.141300
     15 C2          4.3380    6.7680   -4.0390 cd        1 C75     -0.247300
     16 C1          3.0650    6.5960   -4.5950 cc        1 C75      0.366500
     17 C6          2.3800    7.3560   -5.5930 ce        1 C75     -0.173800
     18 C7          1.1520    7.1310   -6.1000 cd        1 C75     -0.087600
     19 S1          0.0270    5.9190   -5.7550 ss        1 C75     -0.035800
     20 C9         -1.1800    6.5270   -6.9250 cc        1 C75      0.495800
     21 N3         -2.2940    5.9090   -7.0560 n2        1 C75     -0.771100
     22 N2         -0.6630    7.6800   -7.5610 n         1 C75     -0.540400
     23 C8          0.6170    8.0640   -7.1510 c         1 C75      0.701700
     24 O1          1.2100    9.0470   -7.6090 o         1 C75     -0.558500
     25 H6          2.8730   -0.7700   -1.9330 hn        1 C75      0.438300
     26 H611        1.8970   -2.7830    0.0150 hx        1 C75      0.101700
     27 H612        3.0880   -3.0740   -1.3390 hx        1 C75      0.101700
     28 H613        3.5530   -2.0040    0.0720 hx        1 C75      0.101700
     29 H15         0.2290    1.7330   -1.9770 ha        1 C75      0.165500
     30 H17         4.0830    1.6260    0.0200 ha        1 C75      0.165500
     31 H14         0.9560    3.7220   -3.2720 ha        1 C75      0.177000
     32 H18         4.8070    3.6150   -1.2650 ha        1 C75      0.177000
     33 H3          5.4040    5.5650   -2.4680 ha        1 C75      0.177000
     34 H2          5.0540    7.5510   -4.2850 ha        1 C75      0.190000
     35 HA          2.9590    8.2270   -5.9710 ha        1 C75      0.190000
     36 H3N        -2.9630    6.2550   -7.7100 hn        1 C75      0.423400
     37 H2N        -1.1640    8.1940   -8.2470 hn        1 C75      0.356500
     38 H62         1.3650   -1.4060   -1.8390 hn        1 C75      0.438300
@<TRIPOS>BOND
     1    1    2 2   
     2    2    3 2   
     3    2    4 1   
     4    2    6 1   
     5    4    5 1   
     6    4   25 1   
     7    4   38 1   
     8    5   26 1   
     9    5   27 1   
    10    5   28 1   
    11    6    7 ar  
    12    6   11 ar  
    13    7    8 ar  
    14    7   29 1   
    15    8    9 ar  
    16    8   31 1   
    17    9   10 ar  
    18    9   12 1   
    19   10   11 ar  
    20   10   32 1   
    21   11   30 1   
    22   12   13 1   
    23   12   14 2   
    24   13   16 1   
    25   14   15 1   
    26   14   33 1   
    27   15   16 2   
    28   15   34 1   
    29   16   17 1   
    30   17   18 2   
    31   17   35 1   
    32   18   19 1   
    33   18   23 1   
    34   19   20 1   
    35   20   21 2   
    36   20   22 1   
    37   21   36 1   
    38   22   23 1   
    39   22   37 1   
    40   23   24 2   
@<TRIPOS>SUBSTRUCTURE
     1 C75         1 TEMP              0 ****  ****    0 ROOT
