@<TRIPOS>MOLECULE
molecule
   74    80     1     0     0
SMALL
bcc


@<TRIPOS>ATOM
      1 N1           0.0000     0.0000     0.0000 nb         1 C77      -0.836000
      2 C2           1.3210     0.0000     0.0000 ca         1 C77       0.743900
      3 N3           2.0270     0.0000     1.1110 nb         1 C77      -0.793000
      4 C4           1.4250     0.0010     2.2960 ca         1 C77       0.476800
      5 C5           0.0210     0.0010     2.3490 ca         1 C77      -0.210200
      6 C6          -0.6890     0.0010     1.1360 ca         1 C77       0.790200
      7 N6          -2.0720     0.0020     1.1250 nv         1 C77      -0.982500
      8 N7          -0.3290     0.0020     3.6580 nc         1 C77      -0.585100
      9 C8           0.7440     0.0010     4.3930 cd         1 C77       0.431700
     10 N9           1.8530     0.0010     3.6000 na         1 C77      -0.259000
     11 CAA          5.3760     3.8900     3.7410 c3         1 C77      -0.103600
     12 CAB          7.2920     2.2710     3.7820 c3         1 C77      -0.103600
     13 OAD          7.4730    -8.3220    17.3310 o          1 C77      -0.681500
     14 CAG          5.2790    -1.7940     8.9210 cc         1 C77      -0.297600
     15 CAH          5.5780    -5.8700    11.6280 c3         1 C77      -0.083400
     16 CAI          4.8290    -4.8920    10.7220 c3         1 C77      -0.077400
     17 CAJ          4.5730    -6.6650    12.4630 c3         1 C77      -0.082400
     18 CAL          5.3210    -7.6440    13.3700 c3         1 C77      -0.067400
     19 CAM          3.1000    -8.6710    16.6130 c3         1 C77       0.011700
     20 CAN          4.2390     0.0500     7.5730 c3         1 C77       0.070300
     21 NAR          4.1300    -3.4330     8.1190 nd         1 C77      -0.364000
     22 NAS          3.7410    -2.3510     7.5410 nc         1 C77      -0.179800
     23 NAT          5.3670    -9.0960    17.4560 ns         1 C77      -0.596900
     24 NAU          6.3760    -8.9030    15.4580 ns         1 C77      -0.596900
     25 OAV          3.3230    -0.5390     5.3850 os         1 C77      -0.385600
     26 OAW          5.5590     2.2060     5.4890 os         1 C77      -0.415600
     27 OAX          5.0130     1.5080     3.3640 os         1 C77      -0.392600
     28 SAY          3.4380    -7.3400    15.3890 ss         1 C77      -0.344200
     29 CAZ          6.4730    -8.7460    16.7860 c          1 C77       0.820500
     30 CBA          5.0960    -3.1340     8.9950 cd         1 C77       0.283600
     31 CBE          4.4010     0.1470     6.0550 c3         1 C77       0.111100
     32 CBF          4.3160    -8.4390    14.2040 c3         1 C77       0.029400
     33 CBG          4.2540     1.6150     5.5850 c3         1 C77       0.074100
     34 CBH          3.7780     1.4440     4.1120 c3         1 C77       0.063100
     35 CBI          3.2440     0.0000     4.0550 c3         1 C77       0.261800
     36 NBJ          4.4040    -1.3440     7.9920 na         1 C77       0.118400
     37 CBL          5.8070     2.4650     4.0970 c3         1 C77       0.320600
     38 CBM          4.3520    -9.5630    16.4980 c3         1 C77       0.091700
     39 CBN          5.0410    -9.4310    15.1340 c3         1 C77       0.092700
     40 H2           1.8420    -0.0010    -0.9490 h5         1 C77       0.062100
     41 HN6         -2.5660    -0.0040     0.2550 hn         1 C77       0.451300
     42 HN6A        -2.5790    -0.0010     1.9880 hn         1 C77       0.451300
     43 H8           0.7550     0.0010     5.4760 h5         1 C77       0.087800
     44 HAA          6.1840     4.5770     3.9610 hc         1 C77       0.055700
     45 HAAA         5.1360     3.9410     2.6860 hc         1 C77       0.055700
     46 HAAB         4.5030     4.1590     4.3230 hc         1 C77       0.055700
     47 HAB          7.8860     2.8870     4.4460 hc         1 C77       0.055700
     48 HABA         7.4830     2.5570     2.7550 hc         1 C77       0.055700
     49 HABB         7.5570     1.2300     3.9220 hc         1 C77       0.055700
     50 HAG          6.1220    -1.2440     9.3210 h4         1 C77       0.180000
     51 HAH          6.2380    -5.3180    12.2870 hc         1 C77       0.040700
     52 HAHA         6.1620    -6.5500    11.0210 hc         1 C77       0.040700
     53 HAI          4.2450    -4.2110    11.3300 hc         1 C77       0.054700
     54 HAIA         4.1690    -5.4440    10.0630 hc         1 C77       0.054700
     55 HAJ          3.9130    -7.2160    11.8030 hc         1 C77       0.052200
     56 HAJA         3.9890    -5.9840    13.0700 hc         1 C77       0.052200
     57 HAK          6.4180    -4.7780     9.2790 hc         1 C77       0.052200
     58 HAKA         6.4950    -3.5460    10.5460 hc         1 C77       0.052200
     59 HAL          5.9810    -7.0920    14.0290 hc         1 C77       0.056700
     60 HALA         5.9050    -8.3250    12.7620 hc         1 C77       0.056700
     61 HAM          2.2100    -9.2240    16.3390 h1         1 C77       0.080200
     62 HAMA         3.0140    -8.2590    17.6110 h1         1 C77       0.080200
     63 HAN          4.9890     0.6640     8.0560 h1         1 C77       0.081700
     64 HANA         3.2520     0.3980     7.8540 h1         1 C77       0.081700
     65 HNAT         5.2500    -9.0480    18.4490 hn         1 C77       0.361500
     66 HNAU         7.0960    -8.6980    14.7950 hn         1 C77       0.363500
     67 HBE          5.3570    -0.2550     5.7420 h1         1 C77       0.088700
     68 HBF          3.6080    -8.9590    13.5700 h1         1 C77       0.078700
     69 HBG          3.5640     2.1910     6.1900 h1         1 C77       0.091700
     70 HBH          3.0500     2.1870     3.8090 h1         1 C77       0.096700
     71 HBI          3.8560    -0.5900     3.3840 h2         1 C77       0.116700
     72 HBM          4.0980   -10.5970    16.6940 h1         1 C77       0.066700
     73 HBN          5.1250   -10.4010    14.6600 h1         1 C77       0.067700
     74 CAK          5.8350    -4.0970     9.8870 c3         1 C77      -0.090700
@<TRIPOS>BOND
     1     1     2 ar
     2     1     6 ar
     3     2     3 ar
     4     3     4 ar
     5     4     5 ar
     6     4    10 1
     7     5     6 ar
     8     5     8 1
     9     6     7 1
    10     8     9 2
    11     9    10 1
    12    10    35 1
    13    11    37 1
    14    12    37 1
    15    13    29 2
    16    14    30 2
    17    14    36 1
    18    15    16 1
    19    15    17 1
    20    16    74 1
    21    17    18 1
    22    74    30 1
    23    18    32 1
    24    19    28 1
    25    19    38 1
    26    20    31 1
    27    20    36 1
    28    21    22 2
    29    21    30 1
    30    22    36 1
    31    23    29 1
    32    23    38 1
    33    24    29 1
    34    24    39 1
    35    25    31 1
    36    25    35 1
    37    26    33 1
    38    26    37 1
    39    27    34 1
    40    27    37 1
    41    28    32 1
    42    31    33 1
    43    32    39 1
    44    33    34 1
    45    34    35 1
    46    38    39 1
    47     2    40 1
    48     7    41 1
    49     7    42 1
    50     9    43 1
    51    11    44 1
    52    11    45 1
    53    11    46 1
    54    12    47 1
    55    12    48 1
    56    12    49 1
    57    14    50 1
    58    15    51 1
    59    15    52 1
    60    16    53 1
    61    16    54 1
    62    17    55 1
    63    17    56 1
    64    74    57 1
    65    74    58 1
    66    18    59 1
    67    18    60 1
    68    19    61 1
    69    19    62 1
    70    20    63 1
    71    20    64 1
    72    23    65 1
    73    24    66 1
    74    31    67 1
    75    32    68 1
    76    33    69 1
    77    34    70 1
    78    35    71 1
    79    38    72 1
    80    39    73 1
@<TRIPOS>SUBSTRUCTURE
     1 C77         1 TEMP              0 ****  ****    0 ROOT
