@<TRIPOS>MOLECULE
C77
   74    80     1     0     0
SMALL
bcc


@<TRIPOS>ATOM
      1 N1           0.0000     0.0000     0.0000 nb         1 C77      -0.745000
      2 C2           1.3210     0.0000     0.0000 ca         1 C77       0.695900
      3 N3           2.0270     0.0000     1.1110 nb         1 C77      -0.683000
      4 C4           1.4250     0.0010     2.2960 ca         1 C77       0.274800
      5 C5           0.0210     0.0010     2.3490 ca         1 C77      -0.244200
      6 C6          -0.6890     0.0010     1.1360 ca         1 C77       0.593200
      7 N6          -2.0720     0.0020     1.1250 nv         1 C77      -0.478500
      8 N7          -0.3290     0.0020     3.6580 nc         1 C77      -0.492100
      9 C8           0.7440     0.0010     4.3930 cd         1 C77       0.253700
     10 N9           1.8530     0.0010     3.6000 na         1 C77       0.196000
     11 CAA          5.3760     3.8900     3.7410 c3         1 C77      -0.023100
     12 CAB          7.2920     2.2710     3.7820 c3         1 C77      -0.023100
     13 OAD          7.4730    -8.3220    17.3310 o          1 C77      -0.725500
     14 CAG          5.2790    -1.7940     8.9210 cc         1 C77      -0.456600
     15 CAH          5.5780    -5.8700    11.6280 c3         1 C77      -0.028400
     16 CAI          4.8290    -4.8920    10.7220 c3         1 C77      -0.029400
     17 CAJ          4.5730    -6.6650    12.4630 c3         1 C77      -0.033400
     18 CAL          5.3210    -7.6440    13.3700 c3         1 C77      -0.020400
     19 CAM          3.1000    -8.6710    16.6130 c3         1 C77       0.086700
     20 CAN          4.2390     0.0500     7.5730 c3         1 C77      -0.026700
     21 NAR          4.1300    -3.4330     8.1190 nd         1 C77      -0.314000
     22 NAS          3.7410    -2.3510     7.5410 nc         1 C77      -0.355800
     23 NAT          5.3670    -9.0960    17.4560 ns         1 C77      -0.211900
     24 NAU          6.3760    -8.9030    15.4580 ns         1 C77      -0.217900
     25 OAV          3.3230    -0.5390     5.3850 os         1 C77      -0.368600
     26 OAW          5.5590     2.2060     5.4890 os         1 C77      -0.406600
     27 OAX          5.0130     1.5080     3.3640 os         1 C77      -0.383600
     28 SAY          3.4380    -7.3400    15.3890 ss         1 C77      -0.396200
     29 CAZ          6.4730    -8.7460    16.7860 c          1 C77       0.623500
     30 CBA          5.0960    -3.1340     8.9950 cd         1 C77       0.274600
     31 CBE          4.4010     0.1470     6.0550 c3         1 C77       0.148100
     32 CBF          4.3160    -8.4390    14.2040 c3         1 C77       0.068400
     33 CBG          4.2540     1.6150     5.5850 c3         1 C77       0.118100
     34 CBH          3.7780     1.4440     4.1120 c3         1 C77       0.098100
     35 CBI          3.2440     0.0000     4.0550 c3         1 C77       0.157800
     36 NBJ          4.4040    -1.3440     7.9920 na         1 C77       0.583400
     37 CBL          5.8070     2.4650     4.0970 c3         1 C77       0.354600
     38 CBM          4.3520    -9.5630    16.4980 c3         1 C77       0.008700
     39 CBN          5.0410    -9.4310    15.1340 c3         1 C77       0.009700
     40 H2           1.8420    -0.0010    -0.9490 h5         1 C77      -0.004900
     41 HN6         -2.5660    -0.0040     0.2550 hn         1 C77       0.276800
     42 HN6A        -2.5790    -0.0010     1.9880 hn         1 C77       0.276800
     43 H8           0.7550     0.0010     5.4760 h5         1 C77       0.039800
     44 HAA          6.1840     4.5770     3.9610 hc         1 C77       0.021533
     45 HAAA         5.1360     3.9410     2.6860 hc         1 C77       0.021533
     46 HAAB         4.5030     4.1590     4.3230 hc         1 C77       0.021533
     47 HAB          7.8860     2.8870     4.4460 hc         1 C77       0.021533
     48 HABA         7.4830     2.5570     2.7550 hc         1 C77       0.021533
     49 HABB         7.5570     1.2300     3.9220 hc         1 C77       0.021533
     50 HAG          6.1220    -1.2440     9.3210 h4         1 C77       0.161000
     51 HAH          6.2380    -5.3180    12.2870 hc         1 C77       0.014200
     52 HAHA         6.1620    -6.5500    11.0210 hc         1 C77       0.014200
     53 HAI          4.2450    -4.2110    11.3300 hc         1 C77       0.026200
     54 HAIA         4.1690    -5.4440    10.0630 hc         1 C77       0.026200
     55 HAJ          3.9130    -7.2160    11.8030 hc         1 C77       0.027700
     56 HAJA         3.9890    -5.9840    13.0700 hc         1 C77       0.027700
     57 HAK          6.4180    -4.7780     9.2790 hc         1 C77       0.018700
     58 HAKA         6.4950    -3.5460    10.5460 hc         1 C77       0.018700
     59 HAL          5.9810    -7.0920    14.0290 hc         1 C77       0.031200
     60 HALA         5.9050    -8.3250    12.7620 hc         1 C77       0.031200
     61 HAM          2.2100    -9.2240    16.3390 h1         1 C77       0.054700
     62 HAMA         3.0140    -8.2590    17.6110 h1         1 C77       0.054700
     63 HAN          4.9890     0.6640     8.0560 h1         1 C77       0.049700
     64 HANA         3.2520     0.3980     7.8540 h1         1 C77       0.049700
     65 HNAT         5.2500    -9.0480    18.4490 hn         1 C77       0.214500
     66 HNAU         7.0960    -8.6980    14.7950 hn         1 C77       0.221500
     67 HBE          5.3570    -0.2550     5.7420 h1         1 C77       0.052700
     68 HBF          3.6080    -8.9590    13.5700 h1         1 C77       0.060700
     69 HBG          3.5640     2.1910     6.1900 h1         1 C77       0.054700
     70 HBH          3.0500     2.1870     3.8090 h1         1 C77       0.058700
     71 HBI          3.8560    -0.5900     3.3840 h2         1 C77       0.074700
     72 HBM          4.0980   -10.5970    16.6940 h1         1 C77       0.037700
     73 HBN          5.1250   -10.4010    14.6600 h1         1 C77       0.039700
     74 CAK          5.8350    -4.0970     9.8870 c3         1 C77      -0.022700
@<TRIPOS>BOND
     1     1     2 ar  
     2     1     6 ar  
     3     2     3 ar  
     4     2    40 1   
     5     3     4 ar  
     6     4     5 ar  
     7     4    10 1   
     8     5     6 ar  
     9     5     8 1   
    10     6     7 1   
    11     7    41 1   
    12     7    42 1   
    13     8     9 2   
    14     9    10 1   
    15     9    43 1   
    16    10    35 1   
    17    11    37 1   
    18    11    44 1   
    19    11    45 1   
    20    11    46 1   
    21    12    37 1   
    22    12    47 1   
    23    12    48 1   
    24    12    49 1   
    25    13    29 2   
    26    14    30 2   
    27    14    36 1   
    28    14    50 1   
    29    15    16 1   
    30    15    17 1   
    31    15    51 1   
    32    15    52 1   
    33    16    53 1   
    34    16    54 1   
    35    16    74 1   
    36    17    18 1   
    37    17    55 1   
    38    17    56 1   
    39    18    32 1   
    40    18    59 1   
    41    18    60 1   
    42    19    28 1   
    43    19    38 1   
    44    19    61 1   
    45    19    62 1   
    46    20    31 1   
    47    20    36 1   
    48    20    63 1   
    49    20    64 1   
    50    21    22 2   
    51    21    30 1   
    52    22    36 1   
    53    23    29 1   
    54    23    38 1   
    55    23    65 1   
    56    24    29 1   
    57    24    39 1   
    58    24    66 1   
    59    25    31 1   
    60    25    35 1   
    61    26    33 1   
    62    26    37 1   
    63    27    34 1   
    64    27    37 1   
    65    28    32 1   
    66    30    74 1   
    67    31    33 1   
    68    31    67 1   
    69    32    39 1   
    70    32    68 1   
    71    33    34 1   
    72    33    69 1   
    73    34    35 1   
    74    34    70 1   
    75    35    71 1   
    76    38    39 1   
    77    38    72 1   
    78    39    73 1   
    79    57    74 1   
    80    58    74 1   
@<TRIPOS>SUBSTRUCTURE
     1 C77         1 TEMP              0 ****  ****    0 ROOT
