@<TRIPOS>MOLECULE
C78
   86    88     1     0     0
SMALL
bcc


@<TRIPOS>ATOM
      1 N1         -0.1300   -1.0600   -5.6290 nh        1 C78     -0.299000
      2 C2          0.7970   -0.0540   -5.4750 ca        1 C78      0.118000
      3 C3          0.4000    1.2960   -5.2730 ca        1 C78     -0.230000
      4 C4          1.3360    2.3210   -5.2840 ca        1 C78     -0.094000
      5 C5          2.6890    2.0580   -5.4790 ca        1 C78     -0.217000
      6 C7          3.1050    0.7320   -5.6550 ca        1 C78     -0.060000
      7 C6          2.1890   -0.3100   -5.6440 ca        1 C78     -0.183000
      8 C8          4.5530    0.4490   -5.8880 c3        1 C78      0.041000
      9 O9          4.9410   -0.5750   -4.9490 os        1 C78     -0.251000
     10 C10         6.0160   -1.3530   -5.3000 c2        1 C78      0.388000
     11 O11         6.6710   -1.0190   -6.3150 o         1 C78     -0.493000
     12 N12         6.3020   -2.3290   -4.3530 n         1 C78     -0.274000
     13 C13         6.9380   -3.5800   -4.7280 c3        1 C78     -0.022000
     14 C14         6.1370   -4.4410   -5.7290 c3        1 C78     -0.079000
     15 C15         4.7680   -4.6640   -5.2260 ca        1 C78     -0.355000
     16 C16         3.6670   -4.0030   -5.8070 ca        1 C78     -0.055000
     17 C17         2.3940   -4.1610   -5.3230 ca        1 C78     -0.315500
     18 C18         4.5210   -5.5370   -4.1510 ca        1 C78     -0.055000
     19 C19         3.2600   -5.7160   -3.6420 ca        1 C78     -0.315500
     20 C20         2.1200   -5.0160   -4.1900 ca        1 C78      0.322000
     21 C21         8.4100   -3.3970   -5.1640 c2        1 C78      0.300000
     22 O22         9.3220   -3.6270   -4.3450 o         1 C78     -0.383000
     23 O23         0.9570   -5.1470   -3.7010 o         1 C78     -0.533000
     24 P24        -1.2110   -4.5040   -3.5080 p3        1 C78      2.517000
     25 O25        -1.3050   -4.5290   -2.0340 o         1 C78     -1.178333
     26 O26        -1.8140   -5.5980   -4.2970 o         1 C78     -1.178333
     27 O27        -0.9950   -3.1940   -4.1760 o         1 C78     -1.178333
     28 N28         8.6490   -3.0480   -6.4770 n         1 C78     -0.364000
     29 C29         9.9450   -2.7280   -7.0390 c3        1 C78      0.089000
     30 C30         9.8370   -2.5150   -8.5730 c3        1 C78     -0.162000
     31 C31         9.5080   -3.7990   -9.3030 c3        1 C78     -0.153000
     32 C32        10.5270   -4.8800   -9.0080 c3        1 C78     -0.154000
     33 C33        10.6670   -5.1080   -7.5170 c3        1 C78     -0.153000
     34 C34        11.0020   -3.8260   -6.7860 c3        1 C78     -0.162000
     35 C35        10.5510   -1.3830   -6.5100 c2        1 C78      0.285000
     36 O36        11.7820   -1.1860   -6.5930 o         1 C78     -0.399000
     37 N37         9.6980   -0.3970   -6.0660 n         1 C78     -0.363000
     38 C38        10.2060    0.8400   -5.5160 c3        1 C78      0.033000
     39 C39        10.6070    0.7460   -4.0320 c3        1 C78     -0.176000
     40 C40         9.4130    0.6120   -3.1140 c3        1 C78     -0.163000
     41 C41         8.4280    1.7460   -3.3130 c3        1 C78     -0.156000
     42 C42         7.9980    1.8500   -4.7630 c3        1 C78     -0.162000
     43 C43         9.2090    2.0120   -5.6650 c3        1 C78     -0.128000
     44 C44         8.8470    2.2350   -7.1270 c2        1 C78      0.308000
     45 N45         7.8290    1.5200   -7.6920 n         1 C78     -0.419000
     46 O46         9.4640    3.0920   -7.8030 o         1 C78     -0.417000
     47 HN11        0.1940   -2.0050   -5.4760 hn        1 C78      0.239000
     48 HN12       -1.0070   -0.9250   -5.1690 hn        1 C78      0.239000
     49 HC31       -0.6600    1.5300   -5.1020 ha        1 C78      0.121000
     50 HC41        1.0030    3.3570   -5.1290 ha        1 C78      0.102000
     51 HC51        3.4210    2.8760   -5.4820 ha        1 C78      0.107000
     52 HC61        2.5400   -1.3530   -5.7390 ha        1 C78      0.162000
     53 HC81        4.7240    0.0870   -6.9380 h1        1 C78      0.086000
     54 HC82        5.2030    1.3430   -5.6900 h1        1 C78      0.086000
     55 H121        5.5200   -2.4990   -3.7370 hn        1 C78      0.255000
     56 H131        6.9950   -4.1700   -3.7570 h1        1 C78      0.143000
     57 H141        6.1020   -3.9370   -6.7300 hc        1 C78      0.070000
     58 H142        6.6920   -5.4090   -5.8470 hc        1 C78      0.070000
     59 H161        3.8440   -3.3410   -6.6700 ha        1 C78      0.074000
     60 H171        1.5380   -3.6460   -5.7790 ha        1 C78      0.123500
     61 H181        5.3720   -6.0820   -3.7110 ha        1 C78      0.074000
     62 H191        3.0760   -6.3940   -2.8000 ha        1 C78      0.123500
     63 H281        7.8650   -2.7140   -7.0010 hn        1 C78      0.249000
     64 H301        9.0620   -1.7380   -8.8000 hc        1 C78      0.104750
     65 H302       10.8290   -2.1240   -8.9230 hc        1 C78      0.104750
     66 H311        9.4850   -3.5960  -10.4060 hc        1 C78      0.082500
     67 H312        8.4860   -4.1570   -9.0080 hc        1 C78      0.082500
     68 H321       11.5210   -4.5820   -9.4360 hc        1 C78      0.070500
     69 H322       10.2160   -5.8340   -9.5070 hc        1 C78      0.070500
     70 H331       11.4810   -5.8560   -7.3290 hc        1 C78      0.082500
     71 H332        9.7150   -5.5410   -7.1120 hc        1 C78      0.082500
     72 H341       11.0870   -4.0220   -5.6850 hc        1 C78      0.104750
     73 H342       11.9910   -3.4330   -7.1430 hc        1 C78      0.104750
     74 H371        8.7500   -0.6190   -5.8540 hn        1 C78      0.247000
     75 H381       11.1390    1.1020   -6.1050 h1        1 C78      0.122000
     76 H391       11.1780    1.6770   -3.7750 hc        1 C78      0.088500
     77 H392       11.2960   -0.1270   -3.8900 hc        1 C78      0.088500
     78 H401        8.8990   -0.3680   -3.3010 hc        1 C78      0.089500
     79 H402        9.7620    0.6050   -2.0490 hc        1 C78      0.089500
     80 H411        8.8970    2.7130   -2.9910 hc        1 C78      0.080000
     81 H412        7.5250    1.5770   -2.6710 hc        1 C78      0.080000
     82 H421        7.4070    0.9320   -5.0340 hc        1 C78      0.094000
     83 H422        7.3170    2.7310   -4.8940 hc        1 C78      0.094000
     84 H431        9.7680    2.9380   -5.3420 hc        1 C78      0.119000
     85 H451        7.3770    0.7840   -7.2050 hn        1 C78      0.235000
     86 H452        7.6460    1.6270   -8.6590 hn        1 C78      0.235000
@<TRIPOS>BOND
     1    1    2 1   
     2    1   47 1   
     3    1   48 1   
     4    2    3 1   
     5    2    7 1   
     6    3    4 1   
     7    3   49 1   
     8    4    5 1   
     9    4   50 1   
    10    5    6 1   
    11    5   51 1   
    12    6    7 1   
    13    6    8 1   
    14    7   52 1   
    15    8    9 1   
    16    8   53 1   
    17    8   54 1   
    18    9   10 1   
    19   10   11 1   
    20   10   12 1   
    21   12   13 1   
    22   12   55 1   
    23   13   14 1   
    24   13   21 1   
    25   13   56 1   
    26   14   15 1   
    27   14   57 1   
    28   14   58 1   
    29   15   16 1   
    30   15   18 1   
    31   16   17 1   
    32   16   59 1   
    33   17   20 1   
    34   17   60 1   
    35   18   19 1   
    36   18   61 1   
    37   19   20 1   
    38   19   62 1   
    39   20   23 1   
    40   21   22 1   
    41   21   28 1   
    42   24   25 1   
    43   24   26 1   
    44   24   27 1   
    45   28   29 1   
    46   28   63 1   
    47   29   30 1   
    48   29   34 1   
    49   29   35 1   
    50   30   31 1   
    51   30   64 1   
    52   30   65 1   
    53   31   32 1   
    54   31   66 1   
    55   31   67 1   
    56   32   33 1   
    57   32   68 1   
    58   32   69 1   
    59   33   34 1   
    60   33   70 1   
    61   33   71 1   
    62   34   72 1   
    63   34   73 1   
    64   35   36 1   
    65   35   37 1   
    66   37   38 1   
    67   37   74 1   
    68   38   39 1   
    69   38   43 1   
    70   38   75 1   
    71   39   40 1   
    72   39   76 1   
    73   39   77 1   
    74   40   41 1   
    75   40   78 1   
    76   40   79 1   
    77   41   42 1   
    78   41   80 1   
    79   41   81 1   
    80   42   43 1   
    81   42   82 1   
    82   42   83 1   
    83   43   44 1   
    84   43   84 1   
    85   44   45 1   
    86   44   46 1   
    87   45   85 1   
    88   45   86 1   
@<TRIPOS>SUBSTRUCTURE
     1 C78         1 TEMP              0 ****  ****    0 ROOT
