@<TRIPOS>MOLECULE
C7B
   54    56     1     0     0
SMALL
bcc


@<TRIPOS>ATOM
      1 C12          0.0000     0.0000     0.0000 c3         1 C7B      -0.033650
      2 C10          1.5300     0.0000     0.0000 c3         1 C7B       0.016700
      3 C21         -1.9660     5.6550     6.5390 ca         1 C7B      -0.166250
      4 C25         -2.4080     6.6860     7.3450 ca         1 C7B      -0.055000
      5 C29         -2.4840     6.5100     8.7160 ca         1 C7B      -0.075600
      6 Cl1         -3.0400     7.8070     9.7270 cl         1 C7B      -0.029400
      7 C27         -2.1170     5.3020     9.2820 ca         1 C7B      -0.055000
      8 C23         -1.6750     4.2680     8.4790 ca         1 C7B      -0.166250
      9 C19         -1.6040     4.4410     7.1050 ca         1 C7B       0.147600
     10 O05         -1.1690     3.4250     6.3130 os         1 C7B      -0.264900
     11 C17         -1.1210     3.6730     4.9060 c3         1 C7B       0.133900
     12 C15         -0.6180     2.4430     4.1960 c          1 C7B       0.562600
     13 O03         -0.3290     1.4520     4.8320 o          1 C7B      -0.616100
     14 N07         -0.4890     2.4450     2.8540 ns         1 C7B      -0.193900
     15 C09         -0.0000     1.2490     2.1640 c3         1 C7B       0.016700
     16 C14         -0.5110     1.2490     0.7220 c3         1 C7B      -0.033650
     17 C13          1.5290     1.2500     2.1630 c3         1 C7B      -0.033650
     18 C11          2.0400     0.0000     1.4420 c3         1 C7B      -0.033650
     19 N08          2.0180    -1.1950    -0.6910 ns         1 C7B      -0.193900
     20 C16          3.2400    -1.1940    -1.2590 c          1 C7B       0.562600
     21 O04          3.9360    -0.2020    -1.1990 o          1 C7B      -0.616100
     22 C18          3.7430    -2.4240    -1.9700 c3         1 C7B       0.133900
     23 O06          5.0520    -2.1750    -2.4840 os         1 C7B      -0.264900
     24 C20          5.6550    -3.1910    -3.1580 ca         1 C7B       0.147600
     25 C22          4.9950    -4.4000    -3.3250 ca         1 C7B      -0.166250
     26 C26          5.6080    -5.4310    -4.0100 ca         1 C7B      -0.055000
     27 C30          6.8800    -5.2590    -4.5280 ca         1 C7B      -0.075600
     28 Cl2          7.6490    -6.5560    -5.3880 cl         1 C7B      -0.029400
     29 C28          7.5390    -4.0530    -4.3630 ca         1 C7B      -0.055000
     30 C24          6.9270    -3.0180    -3.6840 ca         1 C7B      -0.166250
     31 H1          -0.3600    -0.8840     0.5120 hc         1 C7B       0.024825
     32 H2          -0.3600     0.0030    -1.0220 hc         1 C7B       0.024825
     33 H3           1.8890     0.8870    -0.5070 h1         1 C7B       0.060700
     34 H5          -2.6910     7.6350     6.9050 ha         1 C7B       0.113500
     35 H6          -2.1750     5.1670    10.3550 ha         1 C7B       0.113500
     36 H7          -1.3910     3.3220     8.9230 ha         1 C7B       0.120500
     37 H8          -0.4530     4.5030     4.7080 h1         1 C7B       0.014200
     38 H9          -2.1140     3.9160     4.5480 h1         1 C7B       0.014200
     39 H10         -0.7550     3.2530     2.3270 hn         1 C7B       0.171500
     40 H11         -0.3590     0.3610     2.6720 h1         1 C7B       0.060700
     41 H12         -0.1480     2.1330     0.2110 hc         1 C7B       0.024825
     42 H13         -1.5940     1.2450     0.7230 hc         1 C7B       0.024825
     43 H14          1.8900     1.2480     3.1850 hc         1 C7B       0.024825
     44 H15          1.8880     2.1330     1.6500 hc         1 C7B       0.024825
     45 H16          3.1230     0.0030     1.4410 hc         1 C7B       0.024825
     46 H17          1.6760    -0.8840     1.9520 hc         1 C7B       0.024825
     47 H18          1.4390    -2.0090    -0.7530 hn         1 C7B       0.171500
     48 H19          3.7800    -3.2530    -1.2730 h1         1 C7B       0.014200
     49 H20          3.0750    -2.6680    -2.7860 h1         1 C7B       0.014200
     50 H21          3.9990    -4.5340    -2.9200 ha         1 C7B       0.120500
     51 H22          5.0940    -6.3750    -4.1410 ha         1 C7B       0.113500
     52 H23          8.5330    -3.9190    -4.7710 ha         1 C7B       0.113500
     53 H24          7.4430    -2.0740    -3.5550 ha         1 C7B       0.120500
     54 H4          -1.9080     5.7910     5.4660 ha         1 C7B       0.120500
@<TRIPOS>BOND
     1     1     2 1   
     2     1    16 1   
     3     1    31 1   
     4     1    32 1   
     5     2    18 1   
     6     2    19 1   
     7     2    33 1   
     8     3     4 ar  
     9     3     9 ar  
    10     3    54 1   
    11     4     5 ar  
    12     4    34 1   
    13     5     6 1   
    14     5     7 ar  
    15     7     8 ar  
    16     7    35 1   
    17     8     9 ar  
    18     8    36 1   
    19     9    10 1   
    20    10    11 1   
    21    11    12 1   
    22    11    37 1   
    23    11    38 1   
    24    12    13 2   
    25    12    14 1   
    26    14    15 1   
    27    14    39 1   
    28    15    16 1   
    29    15    17 1   
    30    15    40 1   
    31    16    41 1   
    32    16    42 1   
    33    17    18 1   
    34    17    43 1   
    35    17    44 1   
    36    18    45 1   
    37    18    46 1   
    38    19    20 1   
    39    19    47 1   
    40    20    21 2   
    41    20    22 1   
    42    22    23 1   
    43    22    48 1   
    44    22    49 1   
    45    23    24 1   
    46    24    25 ar  
    47    24    30 ar  
    48    25    26 ar  
    49    25    50 1   
    50    26    27 ar  
    51    26    51 1   
    52    27    28 1   
    53    27    29 ar  
    54    29    30 ar  
    55    29    52 1   
    56    30    53 1   
@<TRIPOS>SUBSTRUCTURE
     1 C7B         1 TEMP              0 ****  ****    0 ROOT
