@<TRIPOS>MOLECULE
C7C
   20    22     1     0     0
SMALL
bcc


@<TRIPOS>ATOM
      1 CL          0.1730   -0.3070    0.3180 cl        1 C7C     -0.149400
      2 C1          1.8660   -0.1050    0.1930 ca        1 C7C     -0.014600
      3 C2          2.7080   -0.7180    1.1280 ca        1 C7C     -0.123500
      4 C3          4.0820   -0.5480    1.0180 ca        1 C7C     -0.121000
      5 C6          2.4000    0.6670   -0.8390 ca        1 C7C     -0.123500
      6 C5          3.7830    0.8240   -0.9300 ca        1 C7C     -0.121000
      7 C4          4.6490    0.2250   -0.0120 ca        1 C7C      0.012500
      8 S8          6.3610    0.3000    0.0400 s4        1 C7C     -0.228200
      9 C9          6.8990    1.2260   -1.2000 cc        1 C7C      0.055100
     10 C13         8.3290    1.3230   -1.2030 cd        1 C7C      0.137800
     11 C14         9.0200    0.5840   -0.1120 c         1 C7C      0.668100
     12 O15         8.1670   -0.0340    0.6710 os        1 C7C     -0.400900
     13 O16        10.2470    0.5300    0.0760 o         1 C7C     -0.710500
     14 S10         6.3790    2.1360   -2.5140 ss        1 C7C      0.028200
     15 N11         7.9630    2.5730   -2.9770 nc        1 C7C     -0.198100
     16 N12         8.8420    2.0990   -2.2370 nd        1 C7C     -0.226000
     17 H2          2.2850   -1.3260    1.9400 ha        1 C7C      0.127000
     18 H6          1.7400    1.1480   -1.5740 ha        1 C7C      0.127000
     19 H3          4.7470   -1.0300    1.7540 ha        1 C7C      0.130000
     20 H5          4.1880    1.4370   -1.7520 ha        1 C7C      0.130000
@<TRIPOS>BOND
     1    1    2 1   
     2    2    3 ar  
     3    2    5 ar  
     4    3    4 ar  
     5    3   17 1   
     6    4    7 ar  
     7    4   19 1   
     8    5    6 ar  
     9    5   18 1   
    10    6    7 ar  
    11    6   20 1   
    12    7    8 1   
    13    8    9 1   
    14    8   12 1   
    15    9   10 2   
    16    9   14 1   
    17   10   11 1   
    18   10   16 1   
    19   11   12 1   
    20   11   13 2   
    21   14   15 1   
    22   15   16 2   
@<TRIPOS>SUBSTRUCTURE
     1 C7C         1 TEMP              0 ****  ****    0 ROOT
