@<TRIPOS>MOLECULE
molecule
   20    21     1     0     0
SMALL
bcc


@<TRIPOS>ATOM
      1 Cl           0.0000     0.0000     0.0000 cl         1 C7C      -0.167400
      2 C1           1.7960     0.0000     0.0000 ca         1 C7C       0.024400
      3 C2           2.4920     0.0000     1.2110 ca         1 C7C      -0.115000
      4 C3           3.8850     0.0010     1.2200 ca         1 C7C      -0.113500
      5 C6           2.4890    -0.0040    -1.2090 ca         1 C7C      -0.115000
      6 C5           3.8820    -0.0060    -1.1980 ca         1 C7C      -0.113500
      7 C4           4.5810    -0.0020     0.0130 ca         1 C7C      -0.059100
      8 S8           6.2720    -0.0070     0.0270 ss         1 C7C       0.022200
      9 C9           6.8890     1.0440    -1.2450 cc         1 C7C      -0.078500
     10 C13          8.3470     1.3190    -1.1000 cd         1 C7C       0.336800
     11 C14          9.3780     0.3540    -0.7200 c          1 C7C       0.805100
     12 O15          9.1120    -0.5620     0.0940 o          1 C7C      -0.790800
     13 O16         10.5170     0.4660    -1.2250 o          1 C7C      -0.790800
     14 S10          6.1750     2.6560    -1.1810 ss         1 C7C       0.032200
     15 N11          7.6430     3.2410    -1.5620 nc         1 C7C      -0.205100
     16 N12          8.6240     2.5140    -1.3620 nd         1 C7C      -0.245000
     17 H2           1.9460     0.0030     2.1460 ha         1 C7C       0.136500
     18 H6           1.9490    -0.0070    -2.1480 ha         1 C7C       0.136500
     19 H3           4.4240     0.0030     2.1600 ha         1 C7C       0.149500
     20 H5           4.4280    -0.0090    -2.1340 ha         1 C7C       0.149500
@<TRIPOS>BOND
     1     1     2 1
     2     2     3 ar
     3     2     5 ar
     4     3     4 ar
     5     4     7 ar
     6     5     6 ar
     7     6     7 ar
     8     7     8 1
     9     8     9 1
    10     9    10 2
    11     9    14 1
    12    10    11 1
    13    10    16 1
    14    11    12 1
    15    11    13 1
    16    14    15 1
    17    15    16 2
    18     3    17 1
    19     5    18 1
    20     4    19 1
    21     6    20 1
@<TRIPOS>SUBSTRUCTURE
     1 C7C         1 TEMP              0 ****  ****    0 ROOT
