@<TRIPOS>MOLECULE
C7H
   43    46     1     0     0
SMALL
bcc


@<TRIPOS>ATOM
      1 N            0.0000     0.0000     0.0000 n3         1 C7H      -0.543600
      2 C17          1.9770     0.0000     1.4460 c3         1 C7H       0.003800
      3 C18          1.4690     0.0000     0.0000 c3         1 C7H       0.159800
      4 C21         -0.5250    -0.2320    -1.3520 c3         1 C7H       0.187100
      5 C19         -0.5400     1.2410     0.5680 c3         1 C7H       0.159800
      6 C20         -0.1670     1.3260     2.0530 c3         1 C7H       0.003800
      7 C16          1.3330     1.1600     2.1750 c2         1 C7H      -0.104400
      8 C5           2.0670     2.0140     2.9060 cc         1 C7H      -0.054000
      9 C13          3.5340     1.8470     3.0230 ca         1 C7H      -0.003000
     10 C4           4.3300     1.8580     1.8810 ca         1 C7H      -0.103000
     11 C3           5.7020     1.7520     1.9950 ca         1 C7H      -0.100000
     12 C2           6.2920     1.6390     3.2440 ca         1 C7H      -0.105000
     13 C1           5.5190     1.6090     4.3850 ca         1 C7H      -0.089000
     14 C12          4.1240     1.6900     4.2900 ca         1 C7H      -0.029500
     15 C11          3.3110     1.5610     5.4950 cc         1 C7H      -0.082500
     16 C10          2.2180     2.2290     5.8030 cd         1 C7H      -0.082500
     17 C15          1.5570     3.2650     5.0130 ca         1 C7H      -0.029500
     18 C14          1.4330     3.1500     3.6120 ca         1 C7H      -0.003000
     19 C6           0.7270     4.1090     2.8920 ca         1 C7H      -0.103000
     20 C7           0.1860     5.2000     3.5400 ca         1 C7H      -0.100000
     21 C8           0.3460     5.3500     4.9090 ca         1 C7H      -0.105000
     22 C9           1.0220     4.3900     5.6520 ca         1 C7H      -0.089000
     23 H2           1.7030    -0.9300     1.9280 hc         1 C7H       0.036950
     24 H3           3.0540     0.1180     1.4540 hc         1 C7H       0.036950
     25 H4           1.8290     0.8860    -0.5080 h1         1 C7H       0.007700
     26 H5           1.8290    -0.8860    -0.5080 h1         1 C7H       0.007700
     27 H6          -1.6080    -0.2680    -1.3180 h1         1 C7H      -0.000633
     28 H7          -0.1450    -1.1730    -1.7310 h1         1 C7H      -0.000633
     29 H8          -0.2110     0.5740    -2.0050 h1         1 C7H      -0.000633
     30 H9          -0.1200     2.0900     0.0430 h1         1 C7H       0.007700
     31 H10         -1.6190     1.2440     0.4670 h1         1 C7H       0.007700
     32 H11         -0.6660     0.5350     2.5990 hc         1 C7H       0.036950
     33 H12         -0.4600     2.2910     2.4480 hc         1 C7H       0.036950
     34 H13          3.8730     1.9460     0.9030 ha         1 C7H       0.112000
     35 H14          6.3210     1.7740     1.1060 ha         1 C7H       0.102000
     36 H15          7.3690     1.5570     3.3240 ha         1 C7H       0.102000
     37 H16          5.9910     1.5210     5.3560 ha         1 C7H       0.106000
     38 H17          3.6440     0.8300     6.2210 ha         1 C7H       0.097000
     39 H18          1.7570     1.9830     6.7520 ha         1 C7H       0.097000
     40 H19          0.5990     3.9970     1.8220 ha         1 C7H       0.112000
     41 H20         -0.3440     5.9560     2.9730 ha         1 C7H       0.102000
     42 H21         -0.0830     6.2110     5.4080 ha         1 C7H       0.102000
     43 H22          1.1420     4.5160     6.7210 ha         1 C7H       0.106000
@<TRIPOS>BOND
     1     1     3 1   
     2     1     4 1   
     3     1     5 1   
     4     2     3 1   
     5     2     7 1   
     6     2    23 1   
     7     2    24 1   
     8     3    25 1   
     9     3    26 1   
    10     4    27 1   
    11     4    28 1   
    12     4    29 1   
    13     5     6 1   
    14     5    30 1   
    15     5    31 1   
    16     6     7 1   
    17     6    32 1   
    18     6    33 1   
    19     7     8 2   
    20     8     9 1   
    21     8    18 1   
    22     9    10 ar  
    23     9    14 ar  
    24    10    11 ar  
    25    10    34 1   
    26    11    12 ar  
    27    11    35 1   
    28    12    13 ar  
    29    12    36 1   
    30    13    14 ar  
    31    13    37 1   
    32    14    15 1   
    33    15    16 2   
    34    15    38 1   
    35    16    17 1   
    36    16    39 1   
    37    17    18 ar  
    38    17    22 ar  
    39    18    19 ar  
    40    19    20 ar  
    41    19    40 1   
    42    20    21 ar  
    43    20    41 1   
    44    21    22 ar  
    45    21    42 1   
    46    22    43 1   
@<TRIPOS>SUBSTRUCTURE
     1 C7H         1 TEMP              0 ****  ****    0 ROOT
