@<TRIPOS>MOLECULE
molecule
   43    46     1     0     0
SMALL
bcc


@<TRIPOS>ATOM
      1 N            0.0000     0.0000     0.0000 n3         1 C7H      -0.732600
      2 C17          1.9770     0.0000     1.4460 c3         1 C7H      -0.046200
      3 C18          1.4690     0.0000     0.0000 c3         1 C7H       0.166800
      4 C21         -0.5250    -0.2320    -1.3520 c3         1 C7H       0.153100
      5 C19         -0.5400     1.2410     0.5680 c3         1 C7H       0.166800
      6 C20         -0.1670     1.3260     2.0530 c3         1 C7H      -0.046200
      7 C16          1.3330     1.1600     2.1750 c2         1 C7H      -0.087400
      8 C5           2.0670     2.0140     2.9060 cc         1 C7H      -0.062000
      9 C13          3.5340     1.8470     3.0230 ca         1 C7H      -0.011000
     10 C4           4.3300     1.8580     1.8810 ca         1 C7H      -0.123000
     11 C3           5.7020     1.7520     1.9950 ca         1 C7H      -0.128000
     12 C2           6.2920     1.6390     3.2440 ca         1 C7H      -0.131000
     13 C1           5.5190     1.6090     4.3850 ca         1 C7H      -0.116000
     14 C12          4.1240     1.6900     4.2900 ca         1 C7H      -0.032000
     15 C11          3.3110     1.5610     5.4950 cd         1 C7H      -0.110000
     16 C10          2.2180     2.2290     5.8030 cc         1 C7H      -0.110000
     17 C15          1.5570     3.2650     5.0130 ca         1 C7H      -0.032000
     18 C14          1.4330     3.1500     3.6120 ca         1 C7H      -0.011000
     19 C6           0.7270     4.1090     2.8920 ca         1 C7H      -0.123000
     20 C7           0.1860     5.2000     3.5400 ca         1 C7H      -0.128000
     21 C8           0.3460     5.3500     4.9090 ca         1 C7H      -0.131000
     22 C9           1.0220     4.3900     5.6520 ca         1 C7H      -0.116000
     23 H2           1.7030    -0.9300     1.9280 hc         1 C7H       0.064700
     24 H3           3.0540     0.1180     1.4540 hc         1 C7H       0.064700
     25 H4           1.8290     0.8860    -0.5080 h1         1 C7H       0.033700
     26 H5           1.8290    -0.8860    -0.5080 h1         1 C7H       0.033700
     27 H6          -1.6080    -0.2680    -1.3180 h1         1 C7H       0.031367
     28 H7          -0.1450    -1.1730    -1.7310 h1         1 C7H       0.031367
     29 H8          -0.2110     0.5740    -2.0050 h1         1 C7H       0.031367
     30 H9          -0.1200     2.0900     0.0430 h1         1 C7H       0.033700
     31 H10         -1.6190     1.2440     0.4670 h1         1 C7H       0.033700
     32 H11         -0.6660     0.5350     2.5990 hc         1 C7H       0.064700
     33 H12         -0.4600     2.2910     2.4480 hc         1 C7H       0.064700
     34 H13          3.8730     1.9460     0.9030 ha         1 C7H       0.135000
     35 H14          6.3210     1.7740     1.1060 ha         1 C7H       0.129000
     36 H15          7.3690     1.5570     3.3240 ha         1 C7H       0.129000
     37 H16          5.9910     1.5210     5.3560 ha         1 C7H       0.132500
     38 H17          3.6440     0.8300     6.2210 ha         1 C7H       0.124000
     39 H18          1.7570     1.9830     6.7520 ha         1 C7H       0.124000
     40 H19          0.5990     3.9970     1.8220 ha         1 C7H       0.135000
     41 H20         -0.3440     5.9560     2.9730 ha         1 C7H       0.129000
     42 H21         -0.0830     6.2110     5.4080 ha         1 C7H       0.129000
     43 H22          1.1420     4.5160     6.7210 ha         1 C7H       0.132500
@<TRIPOS>BOND
     1    20    19 ar
     2    20    21 ar
     3    19    18 ar
     4    11    10 ar
     5    11    12 ar
     6    10     9 ar
     7    21    22 ar
     8    18     8 1
     9    18    17 ar
    10    12    13 ar
    11     9     8 1
    12     9    14 ar
    13     8     7 2
    14     7     6 1
    15     7     2 1
    16     6     5 1
    17     2     3 1
    18    22    17 ar
    19     1     5 1
    20     1     3 1
    21     1     4 1
    22    17    16 1
    23    13    14 ar
    24    14    15 1
    25    16    15 2
    26     2    23 1
    27     2    24 1
    28     3    25 1
    29     3    26 1
    30     4    27 1
    31     4    28 1
    32     4    29 1
    33     5    30 1
    34     5    31 1
    35     6    32 1
    36     6    33 1
    37    10    34 1
    38    11    35 1
    39    12    36 1
    40    13    37 1
    41    15    38 1
    42    16    39 1
    43    19    40 1
    44    20    41 1
    45    21    42 1
    46    22    43 1
@<TRIPOS>SUBSTRUCTURE
     1 C7H         1 TEMP              0 ****  ****    0 ROOT
