@<TRIPOS>MOLECULE
molecule
   75    78     1     0     0
SMALL
bcc


@<TRIPOS>ATOM
      1 CBN          0.0000     0.0000     0.0000 c3         1 C7J      -0.144700
      2 CBI          1.5410     0.0000     0.0000 c3         1 C7J       0.028700
      3 Cl           2.1730     1.4810    -0.8100 cl         1 C7J      -0.195400
      4 CAT          1.9180     0.0000     1.4980 c3         1 C7J       0.129400
      5 OAZ          0.7880    -0.6010     2.1610 os         1 C7J      -0.402600
      6 CBM         -0.3860    -0.0780     1.5040 c3         1 C7J       0.330900
      7 OBA         -1.4370    -1.0470     1.6190 os         1 C7J      -0.395600
      8 CAU         -1.7760    -1.5670     0.3250 c3         1 C7J       0.119400
      9 CBK         -0.5070    -1.3610    -0.5400 c3         1 C7J       0.136100
     10 OBB          0.4660    -2.4120    -0.3030 os         1 C7J      -0.423900
     11 CBC          0.4960    -3.4270    -1.1880 c          1 C7J       0.745100
     12 OAD         -0.2680    -3.4330    -2.1320 o          1 C7J      -0.593000
     13 NAY          1.3750    -4.4360    -1.0260 ns         1 C7J      -0.567900
     14 CBJ          1.4090    -5.5400    -1.9880 c3         1 C7J       0.115700
     15 CAV          2.2940    -5.1540    -3.1750 c3         1 C7J      -0.049100
     16 CBE          1.6680    -4.0000    -3.9140 ca         1 C7J      -0.070300
     17 CAN          1.9790    -2.7010    -3.5580 ca         1 C7J      -0.118000
     18 CAL          1.4060    -1.6420    -4.2360 ca         1 C7J      -0.121500
     19 CAK          0.5200    -1.8820    -5.2710 ca         1 C7J      -0.126000
     20 CAM          0.2100    -3.1800    -5.6280 ca         1 C7J      -0.121500
     21 CAO          0.7880    -4.2390    -4.9530 ca         1 C7J      -0.118000
     22 CBH          1.9780    -6.7890    -1.3120 c3         1 C7J       0.104100
     23 OAG          3.3420    -6.5570    -0.9540 oh         1 C7J      -0.598800
     24 CAX          1.8980    -7.9730    -2.2770 c3         1 C7J       0.238800
     25 NBL          2.3160    -9.1960    -1.5870 n3         1 C7J      -0.810500
     26 CAW          1.5000    -9.7360    -0.4980 c3         1 C7J       0.238800
     27 CBG          0.3930   -10.6190    -1.0800 c3         1 C7J      -0.097700
     28 CAB          1.0170   -11.8370    -1.7620 c3         1 C7J      -0.087100
     29 CAA         -0.5340   -11.0830     0.0460 c3         1 C7J      -0.087100
     30 SBO          3.7110    -9.9650    -2.0370 sy         1 C7J       1.430200
     31 OAE          3.6500   -11.2680    -1.4750 o          1 C7J      -0.639300
     32 OAF          3.8680    -9.7270    -3.4300 o          1 C7J      -0.639300
     33 CBF          5.0450    -9.1380    -1.2370 ca         1 C7J      -0.314500
     34 CAR          5.3780    -9.4670     0.0640 ca         1 C7J      -0.016500
     35 CAP          6.4240    -8.8210     0.6940 ca         1 C7J      -0.170500
     36 CBD          7.1400    -7.8400     0.0200 ca         1 C7J       0.216600
     37 NAC          8.1980    -7.1850     0.6540 nv         1 C7J      -0.997200
     38 CAQ          6.8020    -7.5130    -1.2870 ca         1 C7J      -0.170500
     39 CAS          5.7590    -8.1670    -1.9130 ca         1 C7J      -0.016500
     40 HBN         -0.4330     0.8540    -0.5070 hc         1 C7J       0.106700
     41 HBI          1.9170    -0.8930    -0.4830 h1         1 C7J       0.106700
     42 HBM         -0.6760     0.8870     1.8990 h2         1 C7J       0.085700
     43 HBK         -0.7630    -1.2870    -1.5900 h1         1 C7J       0.101700
     44 HAT1         2.0630     1.0150     1.8490 h1         1 C7J       0.065700
     45 HAT2         2.8090    -0.5940     1.6610 h1         1 C7J       0.065700
     46 HAU1        -2.0130    -2.6220     0.3960 h1         1 C7J       0.067200
     47 HAU2        -2.6090    -1.0160    -0.0940 h1         1 C7J       0.067200
     48 HAY          1.9730    -4.4540    -0.2230 hn         1 C7J       0.319500
     49 HBJ          0.4040    -5.7440    -2.3390 h1         1 C7J       0.088700
     50 HAV1         3.2740    -4.8630    -2.8150 hc         1 C7J       0.063700
     51 HAV2         2.3920    -6.0010    -3.8430 hc         1 C7J       0.063700
     52 HBH          1.4030    -7.0100    -0.4210 h1         1 C7J       0.047700
     53 HAN          2.6720    -2.5130    -2.7470 ha         1 C7J       0.123500
     54 HAO          0.5440    -5.2570    -5.2330 ha         1 C7J       0.123500
     55 HAL          1.6490    -0.6240    -3.9570 ha         1 C7J       0.126500
     56 HAK          0.0690    -1.0520    -5.8020 ha         1 C7J       0.125000
     57 HAM         -0.4810    -3.3690    -6.4400 ha         1 C7J       0.126500
     58 HAG          3.3850    -6.2390    -0.0670 ho         1 C7J       0.404000
     59 HAX1         0.8790    -8.0870    -2.6270 h1         1 C7J       0.076200
     60 HAX2         2.5520    -7.7950    -3.1230 h1         1 C7J       0.076200
     61 HAW1         2.1230   -10.3270     0.1620 h1         1 C7J       0.052700
     62 HAW2         1.0550    -8.9200     0.0590 h1         1 C7J       0.052700
     63 HBG         -0.1770   -10.0510    -1.8060 hc         1 C7J       0.050700
     64 HAB1         1.5670   -11.5180    -2.6390 hc         1 C7J       0.039367
     65 HAB2         1.6910   -12.3310    -1.0730 hc         1 C7J       0.039367
     66 HAB3         0.2340   -12.5260    -2.0570 hc         1 C7J       0.039367
     67 HAA1        -1.3120   -11.7150    -0.3650 hc         1 C7J       0.039367
     68 HAA2         0.0380   -11.6410     0.7770 hc         1 C7J       0.039367
     69 HAA3        -0.9840   -10.2200     0.5220 hc         1 C7J       0.039367
     70 HAR          4.8190   -10.2320     0.5890 ha         1 C7J       0.146500
     71 HAS          5.4960    -7.9120    -2.9330 ha         1 C7J       0.146500
     72 HAP          6.6840    -9.0790     1.7130 ha         1 C7J       0.140000
     73 HAC1         9.1270    -7.5490     0.5830 hn         1 C7J       0.432300
     74 HAC2         8.0260    -6.3520     1.1810 hn         1 C7J       0.432300
     75 HAQ          7.3600    -6.7500    -1.8160 ha         1 C7J       0.140000
@<TRIPOS>BOND
     1     1     2 1
     2     1     6 1
     3     1     9 1
     4     2     3 1
     5     2     4 1
     6     4     5 1
     7     5     6 1
     8     6     7 1
     9     7     8 1
    10     8     9 1
    11     9    10 1
    12    10    11 1
    13    11    12 2
    14    11    13 1
    15    13    14 1
    16    14    15 1
    17    14    22 1
    18    15    16 1
    19    16    17 ar
    20    16    21 ar
    21    17    18 ar
    22    18    19 ar
    23    19    20 ar
    24    20    21 ar
    25    22    23 1
    26    22    24 1
    27    24    25 1
    28    25    26 1
    29    25    30 1
    30    26    27 1
    31    27    28 1
    32    27    29 1
    33    30    31 2
    34    30    32 2
    35    30    33 1
    36    33    34 ar
    37    33    39 ar
    38    34    35 ar
    39    35    36 ar
    40    36    37 1
    41    36    38 ar
    42    38    39 ar
    43     1    40 1
    44     2    41 1
    45     6    42 1
    46     9    43 1
    47     4    44 1
    48     4    45 1
    49     8    46 1
    50     8    47 1
    51    13    48 1
    52    14    49 1
    53    15    50 1
    54    15    51 1
    55    22    52 1
    56    17    53 1
    57    21    54 1
    58    18    55 1
    59    19    56 1
    60    20    57 1
    61    23    58 1
    62    24    59 1
    63    24    60 1
    64    26    61 1
    65    26    62 1
    66    27    63 1
    67    28    64 1
    68    28    65 1
    69    28    66 1
    70    29    67 1
    71    29    68 1
    72    29    69 1
    73    34    70 1
    74    39    71 1
    75    35    72 1
    76    37    73 1
    77    37    74 1
    78    38    75 1
@<TRIPOS>SUBSTRUCTURE
     1 C7J         1 TEMP              0 ****  ****    0 ROOT
