@<TRIPOS>MOLECULE
molecule
   86    89     1     0     0
SMALL
bcc


@<TRIPOS>ATOM
      1 CAB          0.0000     0.0000     0.0000 c3         1 C7L       0.128700
      2 CAC         14.4440    -1.1540     7.4570 c3         1 C7L      -0.087600
      3 CAD         12.8520     0.7210     7.8930 c3         1 C7L      -0.087600
      4 OAE          8.0290     3.0590     3.8040 o          1 C7L      -0.595000
      5 OAF         10.6390    -3.6070     8.3810 o          1 C7L      -0.627300
      6 OAG          8.5890    -2.1920     8.5930 o          1 C7L      -0.627300
      7 OAH          8.1970    -1.2760     6.1200 oh         1 C7L      -0.577800
      8 CAK          5.7600     5.2200     5.5580 ca         1 C7L      -0.126000
      9 CAL          5.2120     4.0690     5.0240 ca         1 C7L      -0.121000
     10 CAM          6.8460     5.1380     6.4110 ca         1 C7L      -0.121000
     11 CAN          5.7480     2.8350     5.3430 ca         1 C7L      -0.117500
     12 CAO          7.3810     3.9040     6.7300 ca         1 C7L      -0.117500
     13 CAP          9.6800    -1.0700    11.0410 ca         1 C7L      -0.026500
     14 CAQ         10.0510    -0.7170    12.3230 ca         1 C7L      -0.168500
     15 CAR         11.6450    -2.4260    10.8380 ca         1 C7L      -0.026500
     16 CAS          2.0100     0.0000     1.3060 c3         1 C7L       0.139400
     17 CAT          3.5350    -0.0000     1.1850 c3         1 C7L       0.140400
     18 CAU          5.8100     0.7850    -0.9620 c3         1 C7L       0.104400
     19 CAV          8.2120     3.2420     0.5060 c3         1 C7L       0.106400
     20 CAW          7.4160     1.4080     6.5470 c3         1 C7L      -0.047100
     21 CAX         11.9960    -1.4790     7.0740 c3         1 C7L       0.227800
     22 CAY          9.9160    -0.0420     7.2880 c3         1 C7L       0.230800
     23 NBB          7.9100     0.8790     4.2100 ns         1 C7L      -0.568900
     24 OBC          1.4290     0.0000     0.0000 os         1 C7L      -0.421600
     25 OBD          3.9650     1.2220     0.5800 os         1 C7L      -0.411600
     26 OBE          6.8880     1.6510    -1.3770 os         1 C7L      -0.423600
     27 OBF          7.6730     3.7610    -0.7290 os         1 C7L      -0.386600
     28 OBG          7.1620     1.7950     2.1990 os         1 C7L      -0.438900
     29 CBI          7.7110     1.9510     3.4180 c          1 C7L       0.745100
     30 CBJ          6.8320     2.7530     6.1970 ca         1 C7L      -0.070300
     31 CBK         10.4750    -1.9230    10.2990 ca         1 C7L      -0.324500
     32 CBM         11.2250    -1.2210    12.8680 ca         1 C7L       0.220600
     33 CBN         12.0230    -2.0780    12.1200 ca         1 C7L      -0.168500
     34 CBO         13.0430    -0.7950     7.9570 c3         1 C7L      -0.103700
     35 CBP          9.1860    -0.2560     5.9610 c3         1 C7L       0.108100
     36 CBQ          8.5080     1.0480     5.5370 c3         1 C7L       0.124700
     37 CBR          5.3820     1.3250     0.4210 c3         1 C7L       0.105100
     38 CBS          6.9780     2.9940     1.4000 c3         1 C7L       0.140100
     39 CBU          6.4880     2.9810    -0.9900 c3         1 C7L       0.321900
     40 CBV          5.8170     2.8050     0.4020 c3         1 C7L      -0.131700
     41 SBW          9.9980    -2.3700     8.6620 sy         1 C7L       1.420200
     42 HAB         -0.3610    -0.8880     0.5040 h1         1 C7L       0.030367
     43 HABA        -0.3610     0.8810     0.5170 h1         1 C7L       0.030367
     44 HABB        -0.3610     0.0080    -1.0210 h1         1 C7L       0.030367
     45 HAC         14.5960    -0.7290     6.4720 hc         1 C7L       0.037033
     46 HACA        14.5440    -2.2310     7.4040 hc         1 C7L       0.037033
     47 HACB        15.1840    -0.7560     8.1400 hc         1 C7L       0.037033
     48 HAD         12.6150     1.0130     6.8770 hc         1 C7L       0.037033
     49 HADA        13.7650     1.2130     8.2070 hc         1 C7L       0.037033
     50 HADB        12.0410     1.0110     8.5510 hc         1 C7L       0.037033
     51 HOAH         8.2930    -1.9160     5.4340 ho         1 C7L       0.399000
     52 HAK          5.3390     6.1860     5.3070 ha         1 C7L       0.125000
     53 HAL          4.3620     4.1330     4.3560 ha         1 C7L       0.124500
     54 HAM          7.2760     6.0400     6.8290 ha         1 C7L       0.124500
     55 HAN          5.3180     1.9330     4.9250 ha         1 C7L       0.122000
     56 HAO          8.2310     3.8390     7.3990 ha         1 C7L       0.122000
     57 HAQ          9.4270    -0.0490    12.9040 ha         1 C7L       0.142000
     58 HAR         12.2660    -3.0950    10.2540 ha         1 C7L       0.149000
     59 HAS          1.6900     0.8850     1.8430 h1         1 C7L       0.034200
     60 HASA         1.6900    -0.8840     1.8430 h1         1 C7L       0.034200
     61 HAT          3.8490    -0.8360     0.5720 h1         1 C7L       0.034200
     62 HATA         3.9760    -0.0900     2.1700 h1         1 C7L       0.034200
     63 HAU          6.1610    -0.2360    -0.8750 h1         1 C7L       0.063200
     64 HAUA         4.9860     0.8490    -1.6620 h1         1 C7L       0.063200
     65 HAV          8.7380     2.3120     0.3250 h1         1 C7L       0.072700
     66 HAVA         8.8680     3.9710     0.9650 h1         1 C7L       0.072700
     67 HAW          7.8430     1.4470     7.5420 hc         1 C7L       0.065200
     68 HAWA         6.6360     0.6570     6.5170 hc         1 C7L       0.065200
     69 HAX         12.1970    -2.5430     7.0340 h1         1 C7L       0.064700
     70 HAXA        12.0410    -1.0650     6.0740 h1         1 C7L       0.064700
     71 HAY          9.1940     0.1730     8.0670 h1         1 C7L       0.069700
     72 HAYA        10.6020     0.7900     7.1930 h1         1 C7L       0.069700
     73 HNAZ        11.3010    -1.4210    14.9420 hn         1 C7L       0.433800
     74 HNAA        12.1760    -0.0620    14.3170 hn         1 C7L       0.433800
     75 HNBB         7.6770    -0.0370     3.8800 hn         1 C7L       0.319500
     76 HBN         12.9390    -2.4730    12.5410 ha         1 C7L       0.142000
     77 HBO         12.9280    -1.1310     8.9800 hc         1 C7L       0.055700
     78 HBP          9.8970    -0.5570     5.2020 h1         1 C7L       0.043700
     79 HBQ          9.2440     1.8430     5.5020 h1         1 C7L       0.084700
     80 HBR          5.8980     0.7910     1.2090 h1         1 C7L       0.080700
     81 HBS          6.7930     3.8530     2.0330 h1         1 C7L       0.094700
     82 HBU          5.8300     3.4480    -1.7130 h2         1 C7L       0.102700
     83 HBV          4.9970     3.4930     0.5650 hc         1 C7L       0.102700
     84 NBT         10.6620    -1.2540     7.6350 n3         1 C7L      -0.813500
     85 HAP          8.7640    -0.6770    10.6150 ha         1 C7L       0.149000
     86 NAZ         11.6030    -0.8680    14.1650 nv         1 C7L      -0.997200
@<TRIPOS>BOND
     1     1    24 1
     2     2    34 1
     3     3    34 1
     4     4    29 2
     5     5    41 2
     6     6    41 2
     7     7    35 1
     8     8     9 ar
     9     8    10 ar
    10     9    11 ar
    11    10    12 ar
    12    11    30 ar
    13    12    30 ar
    14    13    14 ar
    15    13    31 ar
    16    14    32 ar
    17    15    31 ar
    18    15    33 ar
    19    16    17 1
    20    16    24 1
    21    17    25 1
    22    18    26 1
    23    18    37 1
    24    19    27 1
    25    19    38 1
    26    20    30 1
    27    20    36 1
    28    21    34 1
    29    21    84 1
    30    22    35 1
    31    22    84 1
    32    86    32 1
    33    23    29 1
    34    23    36 1
    35    25    37 1
    36    26    39 1
    37    27    39 1
    38    28    29 1
    39    28    38 1
    40    31    41 1
    41    32    33 ar
    42    35    36 1
    43    37    40 1
    44    38    40 1
    45    84    41 1
    46    39    40 1
    47     1    42 1
    48     1    43 1
    49     1    44 1
    50     2    45 1
    51     2    46 1
    52     2    47 1
    53     3    48 1
    54     3    49 1
    55     3    50 1
    56     7    51 1
    57     8    52 1
    58     9    53 1
    59    10    54 1
    60    11    55 1
    61    12    56 1
    62    13    85 1
    63    14    57 1
    64    15    58 1
    65    16    59 1
    66    16    60 1
    67    17    61 1
    68    17    62 1
    69    18    63 1
    70    18    64 1
    71    19    65 1
    72    19    66 1
    73    20    67 1
    74    20    68 1
    75    21    69 1
    76    21    70 1
    77    22    71 1
    78    22    72 1
    79    86    73 1
    80    86    74 1
    81    23    75 1
    82    33    76 1
    83    34    77 1
    84    35    78 1
    85    36    79 1
    86    37    80 1
    87    38    81 1
    88    39    82 1
    89    40    83 1
@<TRIPOS>SUBSTRUCTURE
     1 C7L         1 TEMP              0 ****  ****    0 ROOT
