@<TRIPOS>MOLECULE
C7L
   86    89     1     0     0
SMALL
bcc


@<TRIPOS>ATOM
      1 CAB          0.0000     0.0000     0.0000 c3         1 C7L       0.254700
      2 CAC         14.4440    -1.1540     7.4570 c3         1 C7L       0.005900
      3 CAD         12.8520     0.7210     7.8930 c3         1 C7L       0.005900
      4 OAE          8.0290     3.0590     3.8040 o          1 C7L      -0.644000
      5 OAF         10.6390    -3.6070     8.3810 o          1 C7L      -0.578800
      6 OAG          8.5890    -2.1920     8.5930 o          1 C7L      -0.578800
      7 OAH          8.1970    -1.2760     6.1200 oh         1 C7L      -0.551800
      8 CAK          5.7600     5.2200     5.5580 ca         1 C7L      -0.099000
      9 CAL          5.2120     4.0690     5.0240 ca         1 C7L      -0.092500
     10 CAM          6.8460     5.1380     6.4110 ca         1 C7L      -0.092500
     11 CAN          5.7480     2.8350     5.3430 ca         1 C7L      -0.093000
     12 CAO          7.3810     3.9040     6.7300 ca         1 C7L      -0.093000
     13 CAP          9.6800    -1.0700    11.0410 ca         1 C7L       0.007000
     14 CAQ         10.0510    -0.7170    12.3230 ca         1 C7L      -0.146500
     15 CAR         11.6450    -2.4260    10.8380 ca         1 C7L       0.007000
     16 CAS          2.0100     0.0000     1.3060 c3         1 C7L       0.207400
     17 CAT          3.5350    -0.0000     1.1850 c3         1 C7L       0.206400
     18 CAU          5.8100     0.7850    -0.9620 c3         1 C7L       0.184400
     19 CAV          8.2120     3.2420     0.5060 c3         1 C7L       0.181400
     20 CAW          7.4160     1.4080     6.5470 c3         1 C7L       0.011900
     21 CAX         11.9960    -1.4790     7.0740 c3         1 C7L       0.220800
     22 CAY          9.9160    -0.0420     7.2880 c3         1 C7L       0.204800
     23 NBB          7.9100     0.8790     4.2100 ns         1 C7L      -0.165900
     24 OBC          1.4290     0.0000     0.0000 os         1 C7L      -0.410600
     25 OBD          3.9650     1.2220     0.5800 os         1 C7L      -0.392600
     26 OBE          6.8880     1.6510    -1.3770 os         1 C7L      -0.416600
     27 OBF          7.6730     3.7610    -0.7290 os         1 C7L      -0.386600
     28 OBG          7.1620     1.7950     2.1990 os         1 C7L      -0.415900
     29 CBI          7.7110     1.9510     3.4180 c          1 C7L       0.673100
     30 CBJ          6.8320     2.7530     6.1970 ca         1 C7L      -0.077300
     31 CBK         10.4750    -1.9230    10.2990 ca         1 C7L      -0.166500
     32 CBM         11.2250    -1.2210    12.8680 ca         1 C7L       0.085600
     33 CBN         12.0230    -2.0780    12.1200 ca         1 C7L      -0.146500
     34 CBO         13.0430    -0.7950     7.9570 c3         1 C7L      -0.089700
     35 CBP          9.1860    -0.2560     5.9610 c3         1 C7L       0.149100
     36 CBQ          8.5080     1.0480     5.5370 c3         1 C7L       0.012700
     37 CBR          5.3820     1.3250     0.4210 c3         1 C7L       0.126100
     38 CBS          6.9780     2.9940     1.4000 c3         1 C7L       0.173100
     39 CBU          6.4880     2.9810    -0.9900 c3         1 C7L       0.388900
     40 CBV          5.8170     2.8050     0.4020 c3         1 C7L      -0.125700
     41 SBW          9.9980    -2.3700     8.6620 sy         1 C7L       1.045200
     42 HAB         -0.3610    -0.8880     0.5040 h1         1 C7L      -0.013633
     43 HABA        -0.3610     0.8810     0.5170 h1         1 C7L      -0.013633
     44 HABB        -0.3610     0.0080    -1.0210 h1         1 C7L      -0.013633
     45 HAC         14.5960    -0.7290     6.4720 hc         1 C7L       0.005367
     46 HACA        14.5440    -2.2310     7.4040 hc         1 C7L       0.005367
     47 HACB        15.1840    -0.7560     8.1400 hc         1 C7L       0.005367
     48 HAD         12.6150     1.0130     6.8770 hc         1 C7L       0.005367
     49 HADA        13.7650     1.2130     8.2070 hc         1 C7L       0.005367
     50 HADB        12.0410     1.0110     8.5510 hc         1 C7L       0.005367
     51 HOAH         8.2930    -1.9160     5.4340 ho         1 C7L       0.384000
     52 HAK          5.3390     6.1860     5.3070 ha         1 C7L       0.098000
     53 HAL          4.3620     4.1330     4.3560 ha         1 C7L       0.098000
     54 HAM          7.2760     6.0400     6.8290 ha         1 C7L       0.098000
     55 HAN          5.3180     1.9330     4.9250 ha         1 C7L       0.097500
     56 HAO          8.2310     3.8390     7.3990 ha         1 C7L       0.097500
     57 HAQ          9.4270    -0.0490    12.9040 ha         1 C7L       0.114500
     58 HAR         12.2660    -3.0950    10.2540 ha         1 C7L       0.121500
     59 HAS          1.6900     0.8850     1.8430 h1         1 C7L      -0.002800
     60 HASA         1.6900    -0.8840     1.8430 h1         1 C7L      -0.002800
     61 HAT          3.8490    -0.8360     0.5720 h1         1 C7L      -0.002800
     62 HATA         3.9760    -0.0900     2.1700 h1         1 C7L      -0.002800
     63 HAU          6.1610    -0.2360    -0.8750 h1         1 C7L       0.020700
     64 HAUA         4.9860     0.8490    -1.6620 h1         1 C7L       0.020700
     65 HAV          8.7380     2.3120     0.3250 h1         1 C7L       0.028700
     66 HAVA         8.8680     3.9710     0.9650 h1         1 C7L       0.028700
     67 HAW          7.8430     1.4470     7.5420 hc         1 C7L       0.036700
     68 HAWA         6.6360     0.6570     6.5170 hc         1 C7L       0.036700
     69 HAX         12.1970    -2.5430     7.0340 h1         1 C7L       0.033200
     70 HAXA        12.0410    -1.0650     6.0740 h1         1 C7L       0.033200
     71 HAY          9.1940     0.1730     8.0670 h1         1 C7L       0.040700
     72 HAYA        10.6020     0.7900     7.1930 h1         1 C7L       0.040700
     73 HNAZ        11.3010    -1.4210    14.9420 hn         1 C7L       0.278800
     74 HNAA        12.1760    -0.0620    14.3170 hn         1 C7L       0.278800
     75 HNBB         7.6770    -0.0370     3.8800 hn         1 C7L       0.172500
     76 HBN         12.9390    -2.4730    12.5410 ha         1 C7L       0.114500
     77 HBO         12.9280    -1.1310     8.9800 hc         1 C7L       0.033700
     78 HBP          9.8970    -0.5570     5.2020 h1         1 C7L       0.007700
     79 HBQ          9.2440     1.8430     5.5020 h1         1 C7L       0.061700
     80 HBR          5.8980     0.7910     1.2090 h1         1 C7L       0.050700
     81 HBS          6.7930     3.8530     2.0330 h1         1 C7L       0.058700
     82 HBU          5.8300     3.4480    -1.7130 h2         1 C7L       0.046700
     83 HBV          4.9970     3.4930     0.5650 hc         1 C7L       0.069700
     84 NBT         10.6620    -1.2540     7.6350 n3         1 C7L      -0.523500
     85 HAP          8.7640    -0.6770    10.6150 ha         1 C7L       0.121500
     86 NAZ         11.6030    -0.8680    14.1650 nv         1 C7L      -0.568200
@<TRIPOS>BOND
     1     1    24 1   
     2     1    42 1   
     3     1    43 1   
     4     1    44 1   
     5     2    34 1   
     6     2    45 1   
     7     2    46 1   
     8     2    47 1   
     9     3    34 1   
    10     3    48 1   
    11     3    49 1   
    12     3    50 1   
    13     4    29 2   
    14     5    41 2   
    15     6    41 2   
    16     7    35 1   
    17     7    51 1   
    18     8     9 ar  
    19     8    10 ar  
    20     8    52 1   
    21     9    11 ar  
    22     9    53 1   
    23    10    12 ar  
    24    10    54 1   
    25    11    30 ar  
    26    11    55 1   
    27    12    30 ar  
    28    12    56 1   
    29    13    14 ar  
    30    13    31 ar  
    31    13    85 1   
    32    14    32 ar  
    33    14    57 1   
    34    15    31 ar  
    35    15    33 ar  
    36    15    58 1   
    37    16    17 1   
    38    16    24 1   
    39    16    59 1   
    40    16    60 1   
    41    17    25 1   
    42    17    61 1   
    43    17    62 1   
    44    18    26 1   
    45    18    37 1   
    46    18    63 1   
    47    18    64 1   
    48    19    27 1   
    49    19    38 1   
    50    19    65 1   
    51    19    66 1   
    52    20    30 1   
    53    20    36 1   
    54    20    67 1   
    55    20    68 1   
    56    21    34 1   
    57    21    69 1   
    58    21    70 1   
    59    21    84 1   
    60    22    35 1   
    61    22    71 1   
    62    22    72 1   
    63    22    84 1   
    64    23    29 1   
    65    23    36 1   
    66    23    75 1   
    67    25    37 1   
    68    26    39 1   
    69    27    39 1   
    70    28    29 1   
    71    28    38 1   
    72    31    41 1   
    73    32    33 ar  
    74    32    86 1   
    75    33    76 1   
    76    34    77 1   
    77    35    36 1   
    78    35    78 1   
    79    36    79 1   
    80    37    40 1   
    81    37    80 1   
    82    38    40 1   
    83    38    81 1   
    84    39    40 1   
    85    39    82 1   
    86    40    83 1   
    87    41    84 1   
    88    73    86 1   
    89    74    86 1   
@<TRIPOS>SUBSTRUCTURE
     1 C7L         1 TEMP              0 ****  ****    0 ROOT
