@<TRIPOS>MOLECULE
C7M
   67    70     1     0     0
SMALL
bcc


@<TRIPOS>ATOM
      1 C1           0.0000     0.0000     0.0000 c3         1 C7M       0.217700
      2 O2           1.4300     0.0000     0.0000 os         1 C7M      -0.270900
      3 C3           1.8230     0.0000     1.3010 ca         1 C7M       0.198100
      4 C4           3.1730    -0.0010     1.6190 ca         1 C7M      -0.211500
      5 C5           3.5710    -0.0010     2.9410 ca         1 C7M       0.045500
      6 C6           2.6230    -0.0000     3.9490 ca         1 C7M      -0.216500
      7 C7           1.2770    -0.0000     3.6350 ca         1 C7M       0.045500
      8 C8           0.8740     0.0060     2.3130 ca         1 C7M      -0.211500
      9 S9           3.1340    -0.0010     5.6350 sy         1 C7M       1.053200
     10 O10          4.4530    -0.5270     5.6400 o          1 C7M      -0.571800
     11 O11          2.0360    -0.5260     6.3700 o          1 C7M      -0.571800
     12 N12          3.2760     1.5790     6.1100 n7         1 C7M      -0.597100
     13 C13          2.0920     2.4390     6.1620 c3         1 C7M       0.207800
     14 C14          2.4120     3.7000     6.9670 c3         1 C7M       0.157100
     15 O16          3.4040     4.4650     6.2790 oh         1 C7M      -0.588800
     16 C17          1.1420     4.5380     7.1280 c3         1 C7M      -0.054500
     17 C19          0.6830     5.0390     5.7570 c3         1 C7M       0.025900
     18 C20         -0.6180     5.7850     5.9030 ca         1 C7M      -0.162300
     19 C21         -0.6150     7.1620     6.0180 ca         1 C7M      -0.093000
     20 C22         -1.8080     7.8470     6.1540 ca         1 C7M      -0.081000
     21 C23         -3.0050     7.1540     6.1720 ca         1 C7M      -0.085000
     22 C24         -3.0070     5.7770     6.0550 ca         1 C7M      -0.081000
     23 C25         -1.8140     5.0920     5.9160 ca         1 C7M      -0.093000
     24 N26          1.4210     5.6880     8.0000 ny         1 C7M      -0.004000
     25 C29          1.7260     5.2100     9.3550 c3         1 C7M       0.041100
     26 C30          2.0930     6.3820    10.2300 ca         1 C7M      -0.160300
     27 C31          3.4200     6.6660    10.4820 ca         1 C7M      -0.070000
     28 C32          3.7580     7.7430    11.2840 ca         1 C7M      -0.033600
     29 Cl33         5.4270     8.0990    11.5990 cl         1 C7M       0.052600
     30 C34          2.7660     8.5360    11.8360 ca         1 C7M      -0.047000
     31 C35          1.4380     8.2560    11.5860 ca         1 C7M      -0.072000
     32 C36          1.0960     7.1790    10.7770 ca         1 C7M      -0.056200
     33 N37         -0.2480     6.8930    10.5230 na         1 C7M      -0.077300
     34 C38         -1.0820     6.1160    11.3150 cc         1 C7M       0.339400
     35 N39         -2.2530     6.0700    10.7780 n2         1 C7M      -0.529800
     36 N40         -2.2360     6.8160     9.5920 na         1 C7M       0.032100
     37 N41         -0.9740     7.3240     9.4480 na         1 C7M      -0.093700
     38 H42         -0.3610    -0.0030    -1.0210 h1         1 C7M       0.007033
     39 H43         -0.3610    -0.8830     0.5130 h1         1 C7M       0.007033
     40 H44         -0.3610     0.8860     0.5080 h1         1 C7M       0.007033
     41 H45          3.9160    -0.0010     0.8300 ha         1 C7M       0.136500
     42 H46          4.6250    -0.0020     3.1900 ha         1 C7M       0.120000
     43 H47          0.5370     0.0020     4.4260 ha         1 C7M       0.120000
     44 H48         -0.1810     0.0060     2.0680 ha         1 C7M       0.136500
     45 H49          4.1700     1.9440     6.3720 hn         1 C7M       0.342800
     46 H50          1.2780     1.9040     6.6370 h1         1 C7M       0.035700
     47 H51          1.8030     2.7160     5.1560 h1         1 C7M       0.035700
     48 H15          2.7860     3.4200     7.9440 h1         1 C7M       0.023700
     49 H52          4.2570     4.2510     6.6190 ho         1 C7M       0.420000
     50 H18          0.3620     3.9310     7.5700 hx         1 C7M       0.097700
     51 H53          0.5430     4.1940     5.0930 hc         1 C7M       0.060200
     52 H54          1.4350     5.7010     5.3440 hc         1 C7M       0.060200
     53 H55          0.3230     7.7050     6.0040 ha         1 C7M       0.106500
     54 H56         -1.8060     8.9260     6.2450 ha         1 C7M       0.118500
     55 H57         -3.9400     7.6900     6.2790 ha         1 C7M       0.119000
     56 H58         -3.9440     5.2340     6.0670 ha         1 C7M       0.118500
     57 H59         -1.8160     4.0130     5.8240 ha         1 C7M       0.106500
     58 H27          0.6200     6.2860     8.0300 hn         1 C7M       0.265800
     59 H28          2.2050     6.1960     7.6410 hn         1 C7M       0.265800
     60 H60          2.5560     4.5150     9.3150 hx         1 C7M       0.084200
     61 H61          0.8570     4.7110     9.7660 hx         1 C7M       0.084200
     62 H62          4.1970     6.0310    10.0740 ha         1 C7M       0.122000
     63 H63          3.0330     9.3770    12.4650 ha         1 C7M       0.136000
     64 H64          0.6620     8.8780    12.0160 ha         1 C7M       0.129000
     65 H65         -0.9800     6.1390    12.3930 h5         1 C7M       0.039100
     66 H40         -3.0060     6.9530     8.9670 hn         1 C7M       0.230700
     67 H41         -1.0140     8.3240     9.4510 hn         1 C7M       0.082700
@<TRIPOS>BOND
     1     1     2 1   
     2     1    38 1   
     3     1    39 1   
     4     1    40 1   
     5     2     3 1   
     6     3     4 ar  
     7     3     8 ar  
     8     4     5 ar  
     9     4    41 1   
    10     5     6 ar  
    11     5    42 1   
    12     6     7 ar  
    13     6     9 1   
    14     7     8 ar  
    15     7    43 1   
    16     8    44 1   
    17     9    10 2   
    18     9    11 2   
    19     9    12 1   
    20    12    13 1   
    21    12    45 1   
    22    13    14 1   
    23    13    46 1   
    24    13    47 1   
    25    14    15 1   
    26    14    16 1   
    27    14    48 1   
    28    15    49 1   
    29    16    17 1   
    30    16    24 1   
    31    16    50 1   
    32    17    18 1   
    33    17    51 1   
    34    17    52 1   
    35    18    19 ar  
    36    18    23 ar  
    37    19    20 ar  
    38    19    53 1   
    39    20    21 ar  
    40    20    54 1   
    41    21    22 ar  
    42    21    55 1   
    43    22    23 ar  
    44    22    56 1   
    45    23    57 1   
    46    24    25 1   
    47    24    58 1   
    48    24    59 1   
    49    25    26 1   
    50    25    60 1   
    51    25    61 1   
    52    26    27 ar  
    53    26    32 ar  
    54    27    28 ar  
    55    27    62 1   
    56    28    29 1   
    57    28    30 ar  
    58    30    31 ar  
    59    30    63 1   
    60    31    32 ar  
    61    31    64 1   
    62    32    33 1   
    63    33    34 1   
    64    33    37 1   
    65    34    35 2   
    66    34    65 1   
    67    35    36 1   
    68    36    37 1   
    69    36    66 1   
    70    37    67 1   
@<TRIPOS>SUBSTRUCTURE
     1 C7M         1 TEMP              0 ****  ****    0 ROOT
