@<TRIPOS>MOLECULE
C7N
   44    47     1     0     0
SMALL
bcc


@<TRIPOS>ATOM
      1 C1           0.0000     0.0000     0.0000 ca         1 C7N      -0.088000
      2 C2           1.4010     0.0000     0.0000 ca         1 C7N      -0.032000
      3 C3           2.1230     0.0000     1.2690 cc         1 C7N      -0.077000
      4 C4           3.2230     0.6570     1.5650 cd         1 C7N      -0.087000
      5 C5           3.9880     1.5470     0.6970 ca         1 C7N      -0.008000
      6 C6           4.5250     2.7300     1.2190 ca         1 C7N      -0.131000
      7 C7           5.2890     3.5580     0.4170 ca         1 C7N       0.121100
      8 C9           5.5350     3.2220    -0.9100 ca         1 C7N      -0.137000
      9 C10          4.9990     2.0690    -1.4450 ca         1 C7N      -0.082000
     10 C11          4.2080     1.2370    -0.6570 ca         1 C7N      -0.021000
     11 C12          3.5610     0.0480    -1.2590 cc         1 C7N      -0.051000
     12 C13          4.2960    -0.9280    -1.8140 c2         1 C7N      -0.106400
     13 C14          5.8090    -0.8500    -1.8400 c3         1 C7N       0.005300
     14 C15          6.2790    -1.1470    -3.2690 c3         1 C7N       0.159800
     15 C18          4.2470    -2.3640    -3.8220 c3         1 C7N       0.159800
     16 C19          3.6420    -2.1470    -2.4310 c3         1 C7N       0.005300
     17 C20          2.0830    -0.0380    -1.2300 ca         1 C7N      -0.002000
     18 C21          1.3680    -0.1310    -2.4200 ca         1 C7N      -0.103000
     19 C22         -0.0120    -0.1480    -2.3960 ca         1 C7N      -0.099000
     20 C23         -0.6910    -0.0730    -1.1890 ca         1 C7N      -0.105000
     21 N16          5.7130    -2.4260    -3.7130 n3         1 C7N      -0.544600
     22 O8           5.8030     4.7050     0.9290 oh         1 C7N      -0.500100
     23 H1          -0.5410     0.0590     0.9370 ha         1 C7N       0.106000
     24 H2           1.7030    -0.6120     2.0580 ha         1 C7N       0.097000
     25 H3           3.6060     0.5220     2.5700 ha         1 C7N       0.097000
     26 H4           4.3390     2.9990     2.2520 ha         1 C7N       0.117000
     27 H5           6.1340     3.8770    -1.5300 ha         1 C7N       0.114000
     28 H6           5.1930     1.8110    -2.4790 ha         1 C7N       0.113000
     29 H7           6.2230    -1.5840    -1.1600 hc         1 C7N       0.036200
     30 H8           6.1270     0.1450    -1.5510 hc         1 C7N       0.036200
     31 H9           7.3610    -1.2070    -3.2870 h1         1 C7N       0.007450
     32 H10          5.9450    -0.3560    -3.9300 h1         1 C7N       0.007450
     33 H11          5.9150    -3.8250    -5.2600 h1         1 C7N      -0.000633
     34 H12          6.0970    -2.1350    -5.7520 h1         1 C7N      -0.000633
     35 H13          7.3920    -2.9400    -4.8560 h1         1 C7N      -0.000633
     36 H14          3.8760    -3.2950    -4.2350 h1         1 C7N       0.007450
     37 H15          3.9690    -1.5400    -4.4690 h1         1 C7N       0.007450
     38 H16          3.8320    -3.0150    -1.8110 hc         1 C7N       0.036200
     39 H17          2.5750    -1.9820    -2.5190 hc         1 C7N       0.036200
     40 H18          1.8940    -0.1900    -3.3650 ha         1 C7N       0.112000
     41 H19         -0.5670    -0.2050    -3.3240 ha         1 C7N       0.102000
     42 H20         -1.7740    -0.0870    -1.1810 ha         1 C7N       0.102000
     43 H22          6.6370     4.5250     1.3300 ho         1 C7N       0.401000
     44 C17          6.3190    -2.8600    -4.9780 c3         1 C7N       0.187100
@<TRIPOS>BOND
     1     1     2 ar  
     2     1    20 ar  
     3     1    23 1   
     4     2     3 1   
     5     2    17 ar  
     6     3     4 2   
     7     3    24 1   
     8     4     5 1   
     9     4    25 1   
    10     5     6 ar  
    11     5    10 ar  
    12     6     7 ar  
    13     6    26 1   
    14     7     8 ar  
    15     7    22 1   
    16     8     9 ar  
    17     8    27 1   
    18     9    10 ar  
    19     9    28 1   
    20    10    11 1   
    21    11    12 2   
    22    11    17 1   
    23    12    13 1   
    24    12    16 1   
    25    13    14 1   
    26    13    29 1   
    27    13    30 1   
    28    14    21 1   
    29    14    31 1   
    30    14    32 1   
    31    15    16 1   
    32    15    21 1   
    33    15    36 1   
    34    15    37 1   
    35    16    38 1   
    36    16    39 1   
    37    17    18 ar  
    38    18    19 ar  
    39    18    40 1   
    40    19    20 ar  
    41    19    41 1   
    42    20    42 1   
    43    21    44 1   
    44    22    43 1   
    45    33    44 1   
    46    34    44 1   
    47    35    44 1   
@<TRIPOS>SUBSTRUCTURE
     1 C7N         1 TEMP              0 ****  ****    0 ROOT
