@<TRIPOS>MOLECULE
molecule
   44    47     1     0     0
SMALL
bcc


@<TRIPOS>ATOM
      1 C1           0.0000     0.0000     0.0000 ca         1 C7N      -0.114000
      2 C2           1.4010     0.0000     0.0000 ca         1 C7N      -0.034000
      3 C3           2.1230     0.0000     1.2690 cc         1 C7N      -0.104000
      4 C4           3.2230     0.6570     1.5650 cd         1 C7N      -0.113000
      5 C5           3.9880     1.5470     0.6970 ca         1 C7N      -0.018000
      6 C6           4.5250     2.7300     1.2190 ca         1 C7N      -0.144000
      7 C7           5.2890     3.5580     0.4170 ca         1 C7N       0.102100
      8 C9           5.5350     3.2220    -0.9100 ca         1 C7N      -0.151000
      9 C10          4.9990     2.0690    -1.4450 ca         1 C7N      -0.110000
     10 C11          4.2080     1.2370    -0.6570 ca         1 C7N      -0.020000
     11 C12          3.5610     0.0480    -1.2590 cc         1 C7N      -0.062000
     12 C13          4.2960    -0.9280    -1.8140 c2         1 C7N      -0.088400
     13 C14          5.8090    -0.8500    -1.8400 c3         1 C7N      -0.045700
     14 C15          6.2790    -1.1470    -3.2690 c3         1 C7N       0.167800
     15 C18          4.2470    -2.3640    -3.8220 c3         1 C7N       0.167800
     16 C19          3.6420    -2.1470    -2.4310 c3         1 C7N      -0.045700
     17 C20          2.0830    -0.0380    -1.2300 ca         1 C7N      -0.011000
     18 C21          1.3680    -0.1310    -2.4200 ca         1 C7N      -0.123000
     19 C22         -0.0120    -0.1480    -2.3960 ca         1 C7N      -0.127000
     20 C23         -0.6910    -0.0730    -1.1890 ca         1 C7N      -0.130000
     21 N16          5.7130    -2.4260    -3.7130 n3         1 C7N      -0.734600
     22 O8           5.8030     4.7050     0.9290 oh         1 C7N      -0.522100
     23 H1          -0.5410     0.0590     0.9370 ha         1 C7N       0.133000
     24 H2           1.7030    -0.6120     2.0580 ha         1 C7N       0.125000
     25 H3           3.6060     0.5220     2.5700 ha         1 C7N       0.125000
     26 H4           4.3390     2.9990     2.2520 ha         1 C7N       0.143000
     27 H5           6.1340     3.8770    -1.5300 ha         1 C7N       0.140000
     28 H6           5.1930     1.8110    -2.4790 ha         1 C7N       0.139000
     29 H7           6.2230    -1.5840    -1.1600 hc         1 C7N       0.064450
     30 H8           6.1270     0.1450    -1.5510 hc         1 C7N       0.064450
     31 H9           7.3610    -1.2070    -3.2870 h1         1 C7N       0.033950
     32 H10          5.9450    -0.3560    -3.9300 h1         1 C7N       0.033950
     33 H11          5.9150    -3.8250    -5.2600 h1         1 C7N       0.031367
     34 H12          6.0970    -2.1350    -5.7520 h1         1 C7N       0.031367
     35 H13          7.3920    -2.9400    -4.8560 h1         1 C7N       0.031367
     36 H14          3.8760    -3.2950    -4.2350 h1         1 C7N       0.033950
     37 H15          3.9690    -1.5400    -4.4690 h1         1 C7N       0.033950
     38 H16          3.8320    -3.0150    -1.8110 hc         1 C7N       0.064450
     39 H17          2.5750    -1.9820    -2.5190 hc         1 C7N       0.064450
     40 H18          1.8940    -0.1900    -3.3650 ha         1 C7N       0.135000
     41 H19         -0.5670    -0.2050    -3.3240 ha         1 C7N       0.130000
     42 H20         -1.7740    -0.0870    -1.1810 ha         1 C7N       0.130000
     43 H22          6.6370     4.5250     1.3300 ho         1 C7N       0.418000
     44 C17          6.3190    -2.8600    -4.9780 c3         1 C7N       0.154100
@<TRIPOS>BOND
     1    44    21 1
     2     3     4 2
     3     3     2 1
     4     4     5 1
     5    14    21 1
     6    14    13 1
     7     1     2 ar
     8     1    20 ar
     9     2    17 ar
    10    21    15 1
    11    15    16 1
    12    20    19 ar
    13    13    12 1
    14     5     6 ar
    15     5    10 ar
    16    17    11 1
    17    17    18 ar
    18    12    11 2
    19    12    16 1
    20    11    10 1
    21     6     7 ar
    22    19    18 ar
    23    10     9 ar
    24     7    22 1
    25     7     8 ar
    26     9     8 ar
    27     1    23 1
    28     3    24 1
    29     4    25 1
    30     6    26 1
    31     8    27 1
    32     9    28 1
    33    13    29 1
    34    13    30 1
    35    14    31 1
    36    14    32 1
    37    44    33 1
    38    44    34 1
    39    44    35 1
    40    15    36 1
    41    15    37 1
    42    16    38 1
    43    16    39 1
    44    18    40 1
    45    19    41 1
    46    20    42 1
    47    22    43 1
@<TRIPOS>SUBSTRUCTURE
     1 C7N         1 TEMP              0 ****  ****    0 ROOT
