@<TRIPOS>MOLECULE
C7Y
   47    51     1     0     0
SMALL
bcc


@<TRIPOS>ATOM
      1 C4           0.0000     0.0000     0.0000 ca         1 C7Y       0.328600
      2 C5           1.3870     0.0000     0.0000 ca         1 C7Y      -0.188300
      3 C6           2.0710     0.0000     1.2020 ca         1 C7Y      -0.069000
      4 C7           1.3320     0.0010     2.3820 ca         1 C7Y      -0.342500
      5 C8          -0.0730     0.0010     2.3060 ca         1 C7Y       0.371100
      6 C10         -0.5490     0.0010     3.6900 cc         1 C7Y      -0.269800
      7 N12          1.6710     0.0010     3.7160 na         1 C7Y       0.363600
      8 C15         -2.7220    -1.1830    -2.1930 ca         1 C7Y       0.756900
      9 C17         -2.7290    -1.7580    -4.4250 ca         1 C7Y       0.529200
     10 C22         -6.4640    -2.7020    -1.5640 cc         1 C7Y       0.455200
     11 C24         -6.8280    -2.1910     0.5740 cd         1 C7Y      -0.208600
     12 C28         -6.6540    -1.6980     1.9870 cx         1 C7Y      -0.011400
     13 C1          -0.8840     1.4280    -1.8250 c3         1 C7Y      -0.016100
     14 C2          -0.7390    -0.0070    -1.3140 c3         1 C7Y       0.098200
     15 N9          -0.6830     0.0000     1.1240 nb         1 C7Y      -0.519000
     16 C11          0.5380     0.0020     4.4810 cd         1 C7Y      -0.264100
     17 N14         -2.0670    -0.5950    -1.1240 nu         1 C7Y      -0.473900
     18 N16         -2.1330    -1.2050    -3.3790 nb         1 C7Y      -0.754000
     19 C18         -3.9800    -2.3190    -4.2710 ca         1 C7Y      -0.492600
     20 C19         -4.5740    -2.2870    -3.0070 ca         1 C7Y       0.566200
     21 N20         -3.9190    -1.7150    -2.0020 nb         1 C7Y      -0.747000
     22 N21         -5.8300    -2.8370    -2.8060 nu         1 C7Y      -0.357600
     23 C23         -5.9000    -2.1380    -0.4080 cc         1 C7Y      -0.332300
     24 N25         -7.9420    -2.7570     0.0620 na         1 C7Y       0.451400
     25 N27         -7.6900    -3.0720    -1.2790 nd         1 C7Y      -0.715800
     26 C29         -7.8820    -1.1150     2.6890 cx         1 C7Y      -0.084900
     27 C30         -7.3450    -2.4870     3.1020 cx         1 C7Y      -0.084900
     28 H1           1.9290    -0.1120    -0.9310 ha         1 C7Y       0.118000
     29 H2           3.1540     0.0000     1.2260 ha         1 C7Y       0.105000
     30 H3          -1.5820     0.0020     4.0160 ha         1 C7Y       0.135000
     31 H4           2.6060     0.0010     4.0720 hn         1 C7Y       0.115700
     32 H5          -2.2400    -1.7680    -5.3910 h4         1 C7Y      -0.025900
     33 H6          -5.7120    -1.2440     2.2700 hc         1 C7Y       0.071700
     34 H7          -1.5750     1.9690    -1.1890 hc         1 C7Y       0.013033
     35 H8           0.0820     1.9180    -1.8060 hc         1 C7Y       0.013033
     36 H9          -1.2620     1.4140    -2.8400 hc         1 C7Y       0.013033
     37 H10         -0.1840    -0.5930    -2.0370 h1         1 C7Y       0.058700
     38 H11          0.5190     0.0030     5.5640 h4         1 C7Y       0.142000
     39 H12         -2.5180    -0.5350    -0.2330 hn         1 C7Y       0.320800
     40 H13         -4.4890    -2.7780    -5.1110 ha         1 C7Y       0.126000
     41 H14         -6.2700    -3.3600    -3.5370 hn         1 C7Y       0.287800
     42 H15         -4.8770    -1.7970    -0.3000 ha         1 C7Y       0.189000
     43 H16         -8.7960    -2.9250     0.5560 hn         1 C7Y       0.144700
     44 H17         -7.6840    -0.3080     3.3830 hc         1 C7Y       0.045700
     45 H18         -8.7990    -1.1270     2.1120 hc         1 C7Y       0.045700
     46 H19         -6.8190    -2.5170     4.0480 hc         1 C7Y       0.045700
     47 H20         -7.9340    -3.3360     2.7780 hc         1 C7Y       0.045700
@<TRIPOS>BOND
     1     1     2 ar  
     2     1    14 1   
     3     1    15 ar  
     4     2     3 ar  
     5     2    28 1   
     6     3     4 ar  
     7     3    29 1   
     8     4     5 ar  
     9     4     7 1   
    10     5     6 1   
    11     5    15 ar  
    12     6    16 2   
    13     6    30 1   
    14     7    16 1   
    15     7    31 1   
    16     8    17 1   
    17     8    18 ar  
    18     8    21 ar  
    19     9    18 ar  
    20     9    19 ar  
    21     9    32 1   
    22    10    22 1   
    23    10    23 1   
    24    10    25 2   
    25    11    12 1   
    26    11    23 2   
    27    11    24 1   
    28    12    26 1   
    29    12    27 1   
    30    12    33 1   
    31    13    14 1   
    32    13    34 1   
    33    13    35 1   
    34    13    36 1   
    35    14    17 1   
    36    14    37 1   
    37    16    38 1   
    38    17    39 1   
    39    19    20 ar  
    40    19    40 1   
    41    20    21 ar  
    42    20    22 1   
    43    22    41 1   
    44    23    42 1   
    45    24    25 1   
    46    24    43 1   
    47    26    27 1   
    48    26    44 1   
    49    26    45 1   
    50    27    46 1   
    51    27    47 1   
@<TRIPOS>SUBSTRUCTURE
     1 C7Y         1 TEMP              0 ****  ****    0 ROOT
