@<TRIPOS>MOLECULE
molecule
   47    51     1     0     0
SMALL
bcc


@<TRIPOS>ATOM
      1 C4           0.0000     0.0000     0.0000 ca         1 C7Y       0.396600
      2 C5           1.3870     0.0000     0.0000 ca         1 C7Y      -0.225300
      3 C6           2.0710     0.0000     1.2020 ca         1 C7Y      -0.104000
      4 C7           1.3320     0.0010     2.3820 ca         1 C7Y      -0.161500
      5 C8          -0.0730     0.0010     2.3060 ca         1 C7Y       0.429100
      6 C10         -0.5490     0.0010     3.6900 cc         1 C7Y      -0.305800
      7 N12          1.6710     0.0010     3.7160 na         1 C7Y      -0.180400
      8 C15         -2.7220    -1.1830    -2.1930 ca         1 C7Y       0.974900
      9 C17         -2.7290    -1.7580    -4.4250 ca         1 C7Y       0.527200
     10 C22         -6.4640    -2.7020    -1.5640 cd         1 C7Y       0.586200
     11 C24         -6.8280    -2.1910     0.5740 cc         1 C7Y      -0.039600
     12 C28         -6.6540    -1.6980     1.9870 cx         1 C7Y      -0.062400
     13 C1          -0.8840     1.4280    -1.8250 c3         1 C7Y      -0.108100
     14 C2          -0.7390    -0.0070    -1.3140 c3         1 C7Y       0.213200
     15 N9          -0.6830     0.0000     1.1240 nb         1 C7Y      -0.663000
     16 C11          0.5380     0.0020     4.4810 cd         1 C7Y      -0.092100
     17 N14         -2.0670    -0.5950    -1.1240 nu         1 C7Y      -0.883900
     18 N16         -2.1330    -1.2050    -3.3790 nb         1 C7Y      -0.842000
     19 C18         -3.9800    -2.3190    -4.2710 ca         1 C7Y      -0.500600
     20 C19         -4.5740    -2.2870    -3.0070 ca         1 C7Y       0.769200
     21 N20         -3.9190    -1.7150    -2.0020 nb         1 C7Y      -0.851000
     22 N21         -5.8300    -2.8370    -2.8060 nu         1 C7Y      -0.843600
     23 C23         -5.9000    -2.1380    -0.4080 cd         1 C7Y      -0.327300
     24 N25         -7.9420    -2.7570     0.0620 na         1 C7Y      -0.045600
     25 N27         -7.6900    -3.0720    -1.2790 nc         1 C7Y      -0.565800
     26 C29         -7.8820    -1.1150     2.6890 cx         1 C7Y      -0.137400
     27 C30         -7.3450    -2.4870     3.1020 cx         1 C7Y      -0.137400
     28 H1           1.9290    -0.1120    -0.9310 ha         1 C7Y       0.143000
     29 H2           3.1540     0.0000     1.2260 ha         1 C7Y       0.134000
     30 H3          -1.5820     0.0020     4.0160 ha         1 C7Y       0.164000
     31 H4           2.6060     0.0010     4.0720 hn         1 C7Y       0.297700
     32 H5          -2.2400    -1.7680    -5.3910 h4         1 C7Y       0.024100
     33 H6          -5.7120    -1.2440     2.2700 hc         1 C7Y       0.103700
     34 H7          -1.5750     1.9690    -1.1890 hc         1 C7Y       0.046700
     35 H8           0.0820     1.9180    -1.8060 hc         1 C7Y       0.046700
     36 H9          -1.2620     1.4140    -2.8400 hc         1 C7Y       0.046700
     37 H10         -0.1840    -0.5930    -2.0370 h1         1 C7Y       0.085700
     38 H11          0.5190     0.0030     5.5640 h4         1 C7Y       0.170000
     39 H12         -2.5180    -0.5350    -0.2330 hn         1 C7Y       0.476800
     40 H13         -4.4890    -2.7780    -5.1110 ha         1 C7Y       0.140000
     41 H14         -6.2700    -3.3600    -3.5370 hn         1 C7Y       0.466800
     42 H15         -4.8770    -1.7970    -0.3000 ha         1 C7Y       0.202000
     43 H16         -8.7960    -2.9250     0.5560 hn         1 C7Y       0.326700
     44 H17         -7.6840    -0.3080     3.3830 hc         1 C7Y       0.076450
     45 H18         -8.7990    -1.1270     2.1120 hc         1 C7Y       0.076450
     46 H19         -6.8190    -2.5170     4.0480 hc         1 C7Y       0.076450
     47 H20         -7.9340    -3.3360     2.7780 hc         1 C7Y       0.076450
@<TRIPOS>BOND
     1    19     9 ar
     2    19    20 ar
     3    25    10 2
     4    25    24 1
     5    22    20 1
     6    22    10 1
     7     9    18 ar
     8    20    21 ar
     9    10    23 1
    10    24    11 1
    11    18     8 ar
    12    21     8 ar
    13    23    11 2
    14    11    12 1
    15     8    17 1
    16    12    27 1
    17    12    26 1
    18    17    14 1
    19    27    26 1
    20    14     1 1
    21    14    13 1
    22     2     3 ar
    23     2     1 ar
    24     3     4 ar
    25     1    15 ar
    26    15     5 ar
    27     4     5 ar
    28     4     7 1
    29     5     6 1
    30     7    16 1
    31     6    16 2
    32     2    28 1
    33     3    29 1
    34     6    30 1
    35     7    31 1
    36     9    32 1
    37    12    33 1
    38    13    34 1
    39    13    35 1
    40    13    36 1
    41    14    37 1
    42    16    38 1
    43    17    39 1
    44    19    40 1
    45    22    41 1
    46    23    42 1
    47    24    43 1
    48    26    44 1
    49    26    45 1
    50    27    46 1
    51    27    47 1
@<TRIPOS>SUBSTRUCTURE
     1 C7Y         1 TEMP              0 ****  ****    0 ROOT
