@<TRIPOS>MOLECULE
molecule
   98    99     1     0     0
SMALL
bcc


@<TRIPOS>ATOM
      1 C6           0.0000     0.0000     0.0000 ce         1 C7Z      -0.109200
      2 C17          2.0080     1.2480    -0.7270 c3         1 C7Z      -0.080850
      3 C4          -0.1560    -0.7260     2.3780 c3         1 C7Z      -0.052200
      4 C3           1.3160    -1.1120     2.2170 c3         1 C7Z       0.144100
      5 O3           1.9180    -1.2550     3.5040 oh         1 C7Z      -0.605800
      6 C2           2.0280     0.0000     1.4360 c3         1 C7Z      -0.075900
      7 C1           1.5010     0.0000     0.0000 c3         1 C7Z      -0.014300
      8 C5          -0.7340    -0.3260     1.0520 c2         1 C7Z      -0.096900
      9 C18         -2.2330    -0.2910     0.9100 c3         1 C7Z      -0.061400
     10 C16          2.0080    -1.2490    -0.7240 c3         1 C7Z      -0.080850
     11 O23        -16.1130    -3.0460   -20.8940 oh         1 C7Z      -0.605800
     12 C26        -14.5250    -4.1180   -17.1710 ce         1 C7Z      -0.109200
     13 C7          -0.6700     0.3750    -1.1920 ce         1 C7Z      -0.098500
     14 C8          -1.5650    -0.4740    -1.7640 cf         1 C7Z      -0.136000
     15 C9          -2.2100    -0.1120    -2.9590 cf         1 C7Z      -0.016200
     16 C19         -1.9090     1.2150    -3.6070 c3         1 C7Z      -0.095400
     17 C10         -3.1110    -0.9630    -3.5340 ce         1 C7Z      -0.288500
     18 C11         -3.7530    -0.6030    -4.7250 ce         1 C7Z      -0.130500
     19 C12         -4.6610    -1.4610    -5.3040 cf         1 C7Z      -0.108500
     20 C13         -5.3030    -1.1020    -6.4950 cf         1 C7Z      -0.033700
     21 C20         -5.0020     0.2250    -7.1430 c3         1 C7Z      -0.093400
     22 C14         -6.2120    -1.9610    -7.0750 ce         1 C7Z      -0.282000
     23 C15         -6.8540    -1.6030    -8.2650 ce         1 C7Z      -0.124000
     24 C35         -7.7630    -2.4620    -8.8450 cf         1 C7Z      -0.124000
     25 C34         -8.4050    -2.1030   -10.0350 cf         1 C7Z      -0.282000
     26 C33         -9.3130    -2.9620   -10.6140 ce         1 C7Z      -0.033700
     27 C40         -9.6140    -4.2890    -9.9660 c3         1 C7Z      -0.093400
     28 C32         -9.9560    -2.6030   -11.8040 ce         1 C7Z      -0.108500
     29 C31        -10.8630    -3.4610   -12.3830 cf         1 C7Z      -0.130500
     30 C30        -11.5070    -3.1010   -13.5760 cf         1 C7Z      -0.288500
     31 C29        -12.4060    -3.9530   -14.1490 ce         1 C7Z      -0.016200
     32 C39        -12.7070    -5.2800   -13.5020 c3         1 C7Z      -0.095400
     33 C28        -13.0510    -3.5910   -15.3450 cf         1 C7Z      -0.136000
     34 C27        -13.9470    -4.4390   -15.9170 ce         1 C7Z      -0.098500
     35 C21        -14.3760    -5.1060   -18.2920 c3         1 C7Z      -0.014300
     36 C36        -12.9610    -5.0100   -18.8670 c3         1 C7Z      -0.080850
     37 C37        -14.6120    -6.5200   -17.7580 c3         1 C7Z      -0.080850
     38 C22        -15.3920    -4.8060   -19.3960 c3         1 C7Z      -0.075900
     39 C23        -15.3100    -3.3150   -19.7440 c3         1 C7Z       0.144100
     40 C24        -15.8320    -2.5090   -18.5520 c3         1 C7Z      -0.052200
     41 C25        -15.1700    -2.9700   -17.2850 c2         1 C7Z      -0.096900
     42 C38        -15.2410    -2.0710   -16.0780 c3         1 C7Z      -0.061400
     43 H1           1.4690     2.1170    -0.3720 hc         1 C7Z       0.037367
     44 H2           3.0660     1.3740    -0.5310 hc         1 C7Z       0.037367
     45 H3           1.8490     1.1340    -1.7920 hc         1 C7Z       0.037367
     46 H4          -0.7070    -1.5740     2.7670 hc         1 C7Z       0.061950
     47 H5          -0.2340     0.1050     3.0680 hc         1 C7Z       0.061950
     48 H6           1.3890    -2.0440     1.6690 h1         1 C7Z       0.037700
     49 H7           2.1480    -2.1580     3.6450 ho         1 C7Z       0.401000
     50 H8           3.0950    -0.1860     1.4310 hc         1 C7Z       0.056200
     51 H9           1.8220     0.9580     1.8990 hc         1 C7Z       0.056200
     52 H10         -2.6870    -0.2180     1.8910 hc         1 C7Z       0.047200
     53 H11         -2.5200     0.5680     0.3150 hc         1 C7Z       0.047200
     54 H12         -2.5710    -1.1970     0.4230 hc         1 C7Z       0.047200
     55 H13          3.0310    -1.4490    -0.4260 hc         1 C7Z       0.037367
     56 H14          1.9690    -1.0870    -1.7940 hc         1 C7Z       0.037367
     57 H15          1.3850    -2.0960    -0.4630 hc         1 C7Z       0.037367
     58 H18         -0.4540     1.3290    -1.6580 ha         1 C7Z       0.135500
     59 H19         -1.7660    -1.4360    -1.3090 ha         1 C7Z       0.147500
     60 H20         -1.2660     1.0600    -4.4650 hc         1 C7Z       0.049033
     61 H21         -2.8340     1.6790    -3.9280 hc         1 C7Z       0.049033
     62 H22         -1.4100     1.8600    -2.8940 hc         1 C7Z       0.049033
     63 H23         -3.3270    -1.9170    -3.0680 ha         1 C7Z       0.212500
     64 H24         -3.5360     0.3500    -5.1910 ha         1 C7Z       0.115000
     65 H25         -4.8780    -2.4150    -4.8380 ha         1 C7Z       0.153000
     66 H26         -4.0510     0.1690    -7.6570 hc         1 C7Z       0.049200
     67 H27         -5.7830     0.4650    -7.8540 hc         1 C7Z       0.049200
     68 H28         -4.9570     0.9960    -6.3830 hc         1 C7Z       0.049200
     69 H29         -6.4290    -2.9150    -6.6090 ha         1 C7Z       0.214000
     70 H30         -6.6370    -0.6490    -8.7310 ha         1 C7Z       0.126500
     71 H31         -7.9800    -3.4160    -8.3790 ha         1 C7Z       0.126500
     72 H32         -7.5700    -2.7900    -9.9740 ha         1 C7Z       0.214000
     73 H33         -9.3840    -4.2350    -8.9090 hc         1 C7Z       0.049200
     74 H34         -9.0110    -5.0610   -10.4280 hc         1 C7Z       0.049200
     75 H35        -10.6630    -4.5250   -10.0960 hc         1 C7Z       0.049200
     76 H36         -9.7390    -1.6500   -12.2700 ha         1 C7Z       0.153000
     77 H37        -11.0800    -4.4150   -11.9170 ha         1 C7Z       0.115000
     78 H38        -10.6720    -3.7890   -13.5150 ha         1 C7Z       0.212500
     79 H39        -13.6680    -5.6410   -13.8480 hc         1 C7Z       0.049033
     80 H40        -12.7330    -5.1590   -12.4260 hc         1 C7Z       0.049033
     81 H41        -11.9360    -5.9940   -13.7670 hc         1 C7Z       0.049033
     82 H42        -12.7800    -2.6710   -15.8490 ha         1 C7Z       0.147500
     83 H43        -14.1640    -5.3930   -15.4500 ha         1 C7Z       0.135500
     84 H44        -12.8960    -5.6070   -19.7690 hc         1 C7Z       0.037367
     85 H45        -12.7360    -3.9760   -19.1010 hc         1 C7Z       0.037367
     86 H46        -12.2490    -5.3780   -18.1380 hc         1 C7Z       0.037367
     87 H47        -13.7510    -6.8380   -17.1830 hc         1 C7Z       0.037367
     88 H48        -14.7620    -7.1990   -18.5890 hc         1 C7Z       0.037367
     89 H49        -15.4910    -6.5250   -17.1250 hc         1 C7Z       0.037367
     90 H50        -15.1600    -5.3970   -20.2740 hc         1 C7Z       0.056200
     91 H51        -16.3900    -5.0430   -19.0450 hc         1 C7Z       0.056200
     92 H52        -14.2800    -3.0450   -19.9410 h1         1 C7Z       0.037700
     93 H53        -15.6130    -1.4590   -18.7070 hc         1 C7Z       0.061950
     94 H54        -16.9020    -2.6480   -18.4670 hc         1 C7Z       0.061950
     95 H56        -16.0770    -1.3890   -16.1840 hc         1 C7Z       0.047200
     96 H57        -15.3760    -2.6720   -15.1880 hc         1 C7Z       0.047200
     97 H58        -14.3220    -1.5040   -15.9960 hc         1 C7Z       0.047200
     98 H16        -15.5970    -2.5920   -21.5390 ho         1 C7Z       0.401000
@<TRIPOS>BOND
     1    36    35 1
     2    37    35 1
     3    38    35 1
     4    38    39 1
     5    35    12 1
     6    39    40 1
     7    39    11 1
     8    28    26 1
     9    28    29 2
    10    25    24 1
    11    25    26 2
    12    24    23 2
    13    26    27 1
    14    12    34 1
    15    12    41 2
    16    40    41 1
    17    34    33 2
    18    33    31 1
    19    30    31 2
    20    30    29 1
    21    23    22 1
    22    31    32 1
    23    22    20 2
    24    41    42 1
    25    20    19 1
    26    20    21 1
    27    19    18 2
    28    18    17 1
    29    17    15 2
    30    10     7 1
    31    14    15 1
    32    14    13 2
    33    15    16 1
    34    13     1 1
    35     7     1 1
    36     7     2 1
    37     7     6 1
    38     1     8 2
    39     4     3 1
    40     4     6 1
    41     4     5 1
    42     8     9 1
    43     8     3 1
    44     2    43 1
    45     2    44 1
    46     2    45 1
    47     3    46 1
    48     3    47 1
    49     4    48 1
    50     5    49 1
    51     6    50 1
    52     6    51 1
    53     9    52 1
    54     9    53 1
    55     9    54 1
    56    10    55 1
    57    10    56 1
    58    10    57 1
    59    11    98 1
    60    13    58 1
    61    14    59 1
    62    16    60 1
    63    16    61 1
    64    16    62 1
    65    17    63 1
    66    18    64 1
    67    19    65 1
    68    21    66 1
    69    21    67 1
    70    21    68 1
    71    22    69 1
    72    23    70 1
    73    24    71 1
    74    25    72 1
    75    27    73 1
    76    27    74 1
    77    27    75 1
    78    28    76 1
    79    29    77 1
    80    30    78 1
    81    32    79 1
    82    32    80 1
    83    32    81 1
    84    33    82 1
    85    34    83 1
    86    36    84 1
    87    36    85 1
    88    36    86 1
    89    37    87 1
    90    37    88 1
    91    37    89 1
    92    38    90 1
    93    38    91 1
    94    39    92 1
    95    40    93 1
    96    40    94 1
    97    42    95 1
    98    42    96 1
    99    42    97 1
@<TRIPOS>SUBSTRUCTURE
     1 C7Z         1 TEMP              0 ****  ****    0 ROOT
