@<TRIPOS>MOLECULE
C80
   79    81     1     0     0
SMALL
bcc


@<TRIPOS>ATOM
      1 C1           0.0000     0.0000     0.0000 ca         1 C80      -0.082500
      2 C2           1.3820     0.0000     0.0000 ca         1 C80      -0.093500
      3 C3           2.0730     0.0000     1.1970 ca         1 C80      -0.080000
      4 C4           1.3820     0.0000     2.3940 ca         1 C80      -0.093500
      5 C5          -0.0010     0.0000     2.3940 ca         1 C80      -0.082500
      6 C6          -0.6920     0.0070     1.1970 ca         1 C80      -0.141300
      7 C7          -2.1990     0.0130     1.1970 c3         1 C80       0.013600
      8 N8          -2.6930    -1.3660     1.2020 na         1 C80       0.441600
      9 C16         -3.0440    -2.0640     0.0960 cc         1 C80      -0.193100
     10 C9          -2.8600    -2.1390     2.3320 ca         1 C80      -0.227200
     11 C13         -3.6130    -4.3800     2.8600 ca         1 C80      -0.051000
     12 C14         -3.3480    -3.3900     1.9200 ca         1 C80      -0.038800
     13 C15         -3.4600    -3.3140     0.4510 cd         1 C80      -0.240400
     14 C10         -2.6460    -1.9030     3.6860 ca         1 C80      -0.098000
     15 C11         -2.9120    -2.8940     4.6060 ca         1 C80      -0.080000
     16 C12         -3.3930    -4.1290     4.1970 ca         1 C80      -0.109000
     17 C17         -3.9230    -4.3760    -0.4500 c          1 C80       0.760300
     18 O18         -4.2670    -5.4510     0.0020 o          1 C80      -0.592000
     19 O19         -3.9670    -4.1590    -1.7800 os         1 C80      -0.430900
     20 C20         -4.4350    -5.2550    -2.6120 c3         1 C80       0.236400
     21 C21         -4.4150    -4.8240    -4.0800 c3         1 C80      -0.075700
     22 C22         -2.9710    -4.5730    -4.5190 c3         1 C80      -0.009100
     23 C23         -5.0250    -5.9310    -4.9430 c3         1 C80      -0.038400
     24 C24         -5.1190    -5.4530    -6.3940 c3         1 C80      -0.102500
     25 N25         -6.0620    -4.3290    -6.4780 nz         1 C80       0.052400
     26 C26         -5.6110    -6.6000    -7.2770 c3         1 C80       0.175100
     27 O27         -4.6940    -7.6920    -7.1960 oh         1 C80      -0.546800
     28 C28         -5.7060    -6.1210    -8.7280 c3         1 C80      -0.042400
     29 C29         -6.3160    -7.2270    -9.5920 c3         1 C80      -0.124700
     30 C30         -7.7610    -7.4790    -9.1530 c3         1 C80       0.002900
     31 C31         -6.2960    -6.8050   -11.0380 c          1 C80       0.571100
     32 O32         -5.8400    -5.7240   -11.3470 o          1 C80      -0.656100
     33 N33         -6.7860    -7.6260   -11.9870 ns         1 C80      -0.171900
     34 C34         -6.7680    -7.2150   -13.3930 c3         1 C80       0.044000
     35 C35         -7.3770    -8.3210   -14.2560 c3         1 C80      -0.043400
     36 C36         -7.3570    -7.8920   -15.7250 c3         1 C80      -0.020400
     37 C37         -7.9670    -8.9980   -16.5880 c3         1 C80       0.006900
     38 H1          -0.5410     0.0030    -0.9380 ha         1 C80       0.104000
     39 H2           1.9230    -0.0030    -0.9380 ha         1 C80       0.108500
     40 H3           3.1570    -0.0000     1.1970 ha         1 C80       0.109000
     41 H4           1.9240    -0.0020     3.3320 ha         1 C80       0.108500
     42 H5          -0.5430     0.0030     3.3330 ha         1 C80       0.104000
     43 H7C1        -2.5580     0.5290     2.0800 h1         1 C80       0.039200
     44 H7C2        -2.5580     0.5230     0.3110 h1         1 C80       0.039200
     45 H16         -3.0020    -1.6870    -0.9190 h4         1 C80       0.140000
     46 H10         -2.2700    -0.9420     4.0170 ha         1 C80       0.105000
     47 H13         -3.9890    -5.3460     2.5420 ha         1 C80       0.125000
     48 H12         -3.5980    -4.8980     4.9310 ha         1 C80       0.109000
     49 H11         -2.7430    -2.7060     5.6600 ha         1 C80       0.107000
     50 H201        -3.7870    -6.1120    -2.4770 h1         1 C80       0.020700
     51 H202        -5.4470    -5.5180    -2.3260 h1         1 C80       0.020700
     52 H21         -4.9920    -3.9150    -4.1980 hc         1 C80       0.005700
     53 H221        -2.3470    -4.4310    -3.6440 hc         1 C80       0.021700
     54 H222        -2.9310    -3.6850    -5.1380 hc         1 C80       0.021700
     55 H223        -2.6120    -5.4240    -5.0840 hc         1 C80       0.021700
     56 H231        -4.3990    -6.8140    -4.8950 hc         1 C80       0.056700
     57 H232        -6.0160    -6.1710    -4.5770 hc         1 C80       0.056700
     58 H24         -4.1420    -5.1300    -6.7320 hx         1 C80       0.114700
     59 H251        -5.9150    -3.8340    -7.3350 hn         1 C80       0.232467
     60 H252        -7.0000    -4.6780    -6.4500 hn         1 C80       0.232467
     61 H27         -5.1510    -8.4650    -6.9090 ho         1 C80       0.415000
     62 H281        -4.7160    -5.8810    -9.0950 hc         1 C80       0.036200
     63 H282        -6.3330    -5.2390    -8.7770 hc         1 C80       0.036200
     64 H29         -5.7390    -8.1370    -9.4730 hc         1 C80       0.058700
     65 H301        -7.7980    -8.3540    -8.5160 hc         1 C80       0.009700
     66 H302        -8.1280    -6.6190    -8.6060 hc         1 C80       0.009700
     67 H303        -8.3800    -7.6420   -10.0270 hc         1 C80       0.009700
     68 H33         -7.1290    -8.5320   -11.7350 hn         1 C80       0.177500
     69 H341        -7.3450    -6.3060   -13.5110 h1         1 C80       0.032700
     70 H342        -5.7460    -7.0360   -13.7030 h1         1 C80       0.032700
     71 H351        -6.8000    -9.2300   -14.1380 hc         1 C80       0.018700
     72 H352        -8.3990    -8.5000   -13.9460 hc         1 C80       0.018700
     73 H361        -6.3350    -7.7130   -16.0350 hc         1 C80       0.017700
     74 H362        -7.9350    -6.9830   -15.8430 hc         1 C80       0.017700
     75 H371        -7.3980    -9.9110   -16.4580 hc         1 C80       0.005033
     76 H372        -7.9390    -8.7000   -17.6290 hc         1 C80       0.005033
     77 H373        -8.9940    -9.1660   -16.2870 hc         1 C80       0.005033
     78 H26         -6.5890    -6.9230    -6.9390 h1         1 C80       0.020700
     79 H253        -5.9140    -3.7110    -5.7040 hn         1 C80       0.232467
@<TRIPOS>BOND
     1     1     2 ar  
     2     1     6 ar  
     3     1    38 1   
     4     2     3 ar  
     5     2    39 1   
     6     3     4 ar  
     7     3    40 1   
     8     4     5 ar  
     9     4    41 1   
    10     5     6 ar  
    11     5    42 1   
    12     6     7 1   
    13     7     8 1   
    14     7    43 1   
    15     7    44 1   
    16     8     9 1   
    17     8    10 1   
    18     9    13 2   
    19     9    45 1   
    20    10    12 ar  
    21    10    14 ar  
    22    11    12 ar  
    23    11    16 ar  
    24    11    47 1   
    25    12    13 1   
    26    13    17 1   
    27    14    15 ar  
    28    14    46 1   
    29    15    16 ar  
    30    15    49 1   
    31    16    48 1   
    32    17    18 2   
    33    17    19 1   
    34    19    20 1   
    35    20    21 1   
    36    20    50 1   
    37    20    51 1   
    38    21    22 1   
    39    21    23 1   
    40    21    52 1   
    41    22    53 1   
    42    22    54 1   
    43    22    55 1   
    44    23    24 1   
    45    23    56 1   
    46    23    57 1   
    47    24    25 1   
    48    24    26 1   
    49    24    58 1   
    50    25    59 1   
    51    25    60 1   
    52    25    79 1   
    53    26    27 1   
    54    26    28 1   
    55    26    78 1   
    56    27    61 1   
    57    28    29 1   
    58    28    62 1   
    59    28    63 1   
    60    29    30 1   
    61    29    31 1   
    62    29    64 1   
    63    30    65 1   
    64    30    66 1   
    65    30    67 1   
    66    31    32 2   
    67    31    33 1   
    68    33    34 1   
    69    33    68 1   
    70    34    35 1   
    71    34    69 1   
    72    34    70 1   
    73    35    36 1   
    74    35    71 1   
    75    35    72 1   
    76    36    37 1   
    77    36    73 1   
    78    36    74 1   
    79    37    75 1   
    80    37    76 1   
    81    37    77 1   
@<TRIPOS>SUBSTRUCTURE
     1 C80         1 TEMP              0 ****  ****    0 ROOT
