@<TRIPOS>MOLECULE
C81
   57    60     1     0     0
SMALL
bcc


@<TRIPOS>ATOM
      1 C2           0.0000     0.0000     0.0000 ca         1 C81       0.748900
      2 C12         -2.1320    -0.1850     3.5820 c          1 C81       0.764600
      3 C14          0.3900     1.5890     4.9450 c3         1 C81       0.161600
      4 C15          0.0750     0.0110    -2.4670 c3         1 C81       0.088200
      5 C16         -0.7730     0.6160    -3.5550 ca         1 C81       0.373600
      6 C18         -2.8730     1.0970    -4.3720 ca         1 C81       0.434200
      7 C19         -2.3340     1.7030    -5.5050 cp         1 C81      -0.177300
      8 C20         -0.9440     1.7500    -5.6500 ca         1 C81      -0.034300
      9 C21         -0.1610     1.1950    -4.6520 ca         1 C81      -0.207300
     10 C22         -3.2210     2.2870    -6.5410 cp         1 C81       0.006000
     11 C23         -4.2890     1.5550    -7.0680 ca         1 C81      -0.157300
     12 C24         -5.0890     2.1360    -8.0300 ca         1 C81       0.265600
     13 C26         -3.8620     4.0910    -7.9780 ca         1 C81       0.400200
     14 C27         -3.0130     3.5850    -7.0130 ca         1 C81      -0.190300
     15 C28          0.4440    -1.4250    -2.8470 c3         1 C81      -0.012100
     16 C30          0.9520     1.7770     6.3550 c3         1 C81      -0.028100
     17 C10         -1.4890     0.1040     5.7530 c3         1 C81       0.202400
     18 C31         -0.3160     2.3950    -6.8580 c3         1 C81       0.049200
     19 C32         -6.2440     1.3580    -8.6060 c3         1 C81       0.541600
     20 C4          -0.0760     0.0010     2.3030 ca         1 C81       0.486200
     21 C5           1.3190     0.0010     2.3350 ca         1 C81      -0.494600
     22 C6           2.0060     0.0000     1.1360 ca         1 C81       0.524200
     23 C9          -0.2570     0.2060     4.8330 c3         1 C81      -0.061300
     24 F29         -0.5700     2.5750     4.6900 f          1 C81      -0.220300
     25 F33         -5.9420    -0.0070    -8.5870 f          1 C81      -0.202967
     26 F34         -7.3910     1.5930    -7.8400 f          1 C81      -0.202967
     27 F35         -6.4710     1.7680    -9.9240 f          1 C81      -0.202967
     28 N1           1.3250     0.0000     0.0000 nb         1 C81      -0.735000
     29 N17         -2.0870     0.5820    -3.4490 nb         1 C81      -0.577000
     30 N25         -4.8560     3.3640    -8.4530 nb         1 C81      -0.517000
     31 N3          -0.6940     0.0000     1.1280 nb         1 C81      -0.673000
     32 N7          -0.8080     0.0010     3.4850 n          1 C81      -0.103300
     33 N8          -0.6750     0.0060    -1.2080 nu         1 C81      -0.465900
     34 O11         -2.5950    -0.1380     4.8360 os         1 C81      -0.363900
     35 H1           1.1930     1.6710     4.2220 h1         1 C81       0.047700
     36 H2           0.9790     0.5970    -2.3460 h1         1 C81       0.059700
     37 H3          -3.9480     1.0510    -4.2470 h4         1 C81      -0.009900
     38 H4           0.9190     1.2130    -4.7310 ha         1 C81       0.125000
     39 H5          -4.3760     0.4960    -6.8580 ha         1 C81       0.136000
     40 H6          -3.7090     5.0960    -8.3520 h4         1 C81      -0.010900
     41 H7          -2.1990     4.1870    -6.6270 ha         1 C81       0.127000
     42 H8           1.5220    -1.5180    -2.9010 hc         1 C81       0.014367
     43 H9           0.0590    -2.1060    -2.0980 hc         1 C81       0.014367
     44 H10          0.0120    -1.6660    -3.8110 hc         1 C81       0.014367
     45 H11          0.1600     2.1020     7.0190 hc         1 C81       0.021367
     46 H12          1.3580     0.8380     6.7110 hc         1 C81       0.021367
     47 H13          1.7360     2.5250     6.3350 hc         1 C81       0.021367
     48 H14         -1.6380     1.0330     6.2900 h1         1 C81       0.033700
     49 H15         -1.3790    -0.7260     6.4410 h1         1 C81       0.033700
     50 H16          0.6900     2.0150    -6.9880 hc         1 C81       0.017700
     51 H17         -0.9050     2.1660    -7.7370 hc         1 C81       0.017700
     52 H18         -0.2800     3.4690    -6.7170 hc         1 C81       0.017700
     53 H19          1.8520     0.0010     3.2780 ha         1 C81       0.127000
     54 H20          3.0890     0.0000     1.1250 h4         1 C81      -0.021900
     55 H21          0.4560    -0.5730     5.0710 h1         1 C81       0.056700
     56 H22         -1.6750    -0.0220    -1.2230 hn         1 C81       0.330800
     57 O13         -2.8470    -0.3740     2.6180 o          1 C81      -0.614500
@<TRIPOS>BOND
     1     1    28 ar  
     2     1    31 ar  
     3     1    33 1   
     4     2    32 1   
     5     2    34 1   
     6     2    57 2   
     7     3    16 1   
     8     3    23 1   
     9     3    24 1   
    10     3    35 1   
    11     4     5 1   
    12     4    15 1   
    13     4    33 1   
    14     4    36 1   
    15     5     9 ar  
    16     5    29 ar  
    17     6     7 ar  
    18     6    29 ar  
    19     6    37 1   
    20     7     8 ar  
    21     7    10 1   
    22     8     9 ar  
    23     8    18 1   
    24     9    38 1   
    25    10    11 ar  
    26    10    14 ar  
    27    11    12 ar  
    28    11    39 1   
    29    12    19 1   
    30    12    30 ar  
    31    13    14 ar  
    32    13    30 ar  
    33    13    40 1   
    34    14    41 1   
    35    15    42 1   
    36    15    43 1   
    37    15    44 1   
    38    16    45 1   
    39    16    46 1   
    40    16    47 1   
    41    17    23 1   
    42    17    34 1   
    43    17    48 1   
    44    17    49 1   
    45    18    50 1   
    46    18    51 1   
    47    18    52 1   
    48    19    25 1   
    49    19    26 1   
    50    19    27 1   
    51    20    21 ar  
    52    20    31 ar  
    53    20    32 1   
    54    21    22 ar  
    55    21    53 1   
    56    22    28 ar  
    57    22    54 1   
    58    23    32 1   
    59    23    55 1   
    60    33    56 1   
@<TRIPOS>SUBSTRUCTURE
     1 C81         1 TEMP              0 ****  ****    0 ROOT
