@<TRIPOS>MOLECULE
C82
   20    21     1     0     0
SMALL
bcc


@<TRIPOS>ATOM
      1 N            0.0000     0.0000     0.0000 nu         1 C82      -0.185000
      2 C            2.4140     0.0000     0.0000 ca         1 C82      -0.151000
      3 C2           3.6120    -0.0050     2.0740 ca         1 C82      -0.063600
      4 C1           3.6100     0.0000     0.6900 ca         1 C82      -0.055500
      5 C3           2.4160    -0.0120     2.7700 ca         1 C82      -0.055500
      6 C4           1.2170    -0.0170     2.0850 ca         1 C82      -0.151000
      7 C5           1.2120    -0.0060     0.6960 ca         1 C82       0.001600
      8 C6          -0.1070    -0.6660    -1.2190 cc         1 C82      -0.236000
      9 N3           0.8390    -1.4560    -1.8000 na         1 C82       0.380400
     10 N2           0.2880    -1.9060    -3.0100 nc         1 C82      -0.392800
     11 N1          -0.8940    -1.4100    -3.1220 nd         1 C82      -0.227000
     12 C7          -1.1760    -0.6580    -2.0580 cd         1 C82       0.188200
     13 H5          -0.7870     0.4960     0.3700 hn         1 C82       0.299800
     14 H1           2.4130     0.0040    -1.0830 ha         1 C82       0.118000
     15 H2           4.5470     0.0040     0.1480 ha         1 C82       0.117000
     16 H3           2.4200    -0.0200     3.8530 ha         1 C82       0.117000
     17 H4           0.2810    -0.0220     2.6310 ha         1 C82       0.118000
     18 H            1.7460    -1.6720    -1.4360 hn         1 C82       0.177700
     19 H6          -2.1030    -0.1230    -1.8930 h4         1 C82       0.014100
     20 Cl           5.1170    -0.0050     2.9380 cl         1 C82      -0.015400
@<TRIPOS>BOND
     1     1     7 1   
     2     1     8 1   
     3     1    13 1   
     4     2     4 ar  
     5     2     7 ar  
     6     2    14 1   
     7     3     4 ar  
     8     3     5 ar  
     9     3    20 1   
    10     4    15 1   
    11     5     6 ar  
    12     5    16 1   
    13     6     7 ar  
    14     6    17 1   
    15     8     9 1   
    16     8    12 2   
    17     9    10 1   
    18     9    18 1   
    19    10    11 2   
    20    11    12 1   
    21    12    19 1   
@<TRIPOS>SUBSTRUCTURE
     1 C82         1 TEMP              0 ****  ****    0 ROOT
