@<TRIPOS>MOLECULE
C85
   35    37     1     0     0
SMALL
bcc


@<TRIPOS>ATOM
      1 O4         -0.0630    0.0600    0.0260 o         1 C85     -0.573800
      2 S2          1.3040    0.2400    0.0500 sy        1 C85      1.505200
      3 O3          2.0570   -0.1130    1.1500 o         1 C85     -0.573800
      4 N6          1.8170   -1.2120   -1.1440 n4        1 C85     -0.782500
      5 C16         1.8630    1.4350   -0.8190 ca        1 C85     -0.606500
      6 C15         1.0510    2.0950   -1.7770 ca        1 C85      0.023500
      7 C14         1.5100    3.1820   -2.4890 ca        1 C85     -0.159500
      8 C13         2.8170    3.6790   -2.2760 ca        1 C85      0.053500
      9 C18         3.6390    3.0370   -1.3190 ca        1 C85     -0.159500
     10 C17         3.1690    1.9500   -0.6150 ca        1 C85      0.023500
     11 C4          3.3030    4.8060   -2.9990 cc        1 C85      0.205200
     12 O2          2.4380    5.3750   -3.9560 os        1 C85     -0.348800
     13 C3          4.5030    5.5240   -2.9720 cd        1 C85     -0.138300
     14 C2          4.3890    6.5710   -3.9350 cd        1 C85     -0.248300
     15 C1          3.1220    6.4530   -4.5170 cc        1 C85      0.369500
     16 C6          2.4930    7.2370   -5.5330 ce        1 C85     -0.174800
     17 C7          1.2660    7.0650   -6.0640 cd        1 C85     -0.086600
     18 S1          0.0810    5.9080   -5.7370 ss        1 C85     -0.035800
     19 C9         -1.0730    6.5640   -6.9360 cc        1 C85      0.495800
     20 N3         -2.2110    5.9960   -7.0880 n2        1 C85     -0.770100
     21 N2         -0.4910    7.6880   -7.5670 n         1 C85     -0.540400
     22 C8          0.7960    8.0160   -7.1310 c         1 C85      0.701700
     23 O1          1.4430    8.9670   -7.5810 o         1 C85     -0.557500
     24 H6N1        2.2830   -0.8740   -1.9780 hn        1 C85      0.450133
     25 H6N2        0.9940   -1.7360   -1.4310 hn        1 C85      0.450133
     26 H17         3.8170    1.4730    0.1460 ha        1 C85      0.166500
     27 H15         0.0160    1.7370   -1.9370 ha        1 C85      0.166500
     28 H18         4.6570    3.4190   -1.1340 ha        1 C85      0.177500
     29 H14         0.8580    3.6830   -3.2270 ha        1 C85      0.177500
     30 H3          5.3660    5.3310   -2.3360 ha        1 C85      0.178000
     31 H2          5.1440    7.3190   -4.1700 ha        1 C85      0.191000
     32 H6          3.1180    8.0790   -5.9030 ha        1 C85      0.190000
     33 H3N1       -0.9540    8.2200   -8.2660 hn        1 C85      0.357500
     34 H3N2       -2.8510    6.3670   -7.7570 hn        1 C85      0.423400
     35 H63         2.4450   -1.8530   -0.6670 hn        1 C85      0.450133
@<TRIPOS>BOND
     1    1    2 2   
     2    2    3 2   
     3    2    4 1   
     4    2    5 1   
     5    4   24 1   
     6    4   25 1   
     7    4   35 1   
     8    5    6 ar  
     9    5   10 ar  
    10    6    7 ar  
    11    6   27 1   
    12    7    8 ar  
    13    7   29 1   
    14    8    9 ar  
    15    8   11 1   
    16    9   10 ar  
    17    9   28 1   
    18   10   26 1   
    19   11   12 1   
    20   11   13 2   
    21   12   15 1   
    22   13   14 1   
    23   13   30 1   
    24   14   15 2   
    25   14   31 1   
    26   15   16 1   
    27   16   17 2   
    28   16   32 1   
    29   17   18 1   
    30   17   22 1   
    31   18   19 1   
    32   19   20 2   
    33   19   21 1   
    34   20   34 1   
    35   21   22 1   
    36   21   33 1   
    37   22   23 2   
@<TRIPOS>SUBSTRUCTURE
     1 C85         1 TEMP              0 ****  ****    0 ROOT
