@<TRIPOS>MOLECULE
C87
   53    56     1     0     0
SMALL
bcc


@<TRIPOS>ATOM
      1 O23          0.0000     0.0000     0.0000 o          1 C87      -0.644100
      2 C22          1.2160     0.0000     0.0000 c          1 C87       0.603700
      3 N24          1.8910     0.0000     1.1660 ns         1 C87      -0.213900
      4 C25          1.1590    -0.0010     2.4360 c3         1 C87       0.196100
      5 C26          2.1150    -0.0010     3.5540 c1         1 C87       0.162700
      6 N27          2.8430     0.0130     4.4260 n1         1 C87      -0.355800
      7 C19          1.9540    -0.0060    -1.2810 ca         1 C87      -0.149600
      8 C18          3.3510    -0.0110    -1.2820 ca         1 C87      -0.065000
      9 C17          4.0380    -0.0160    -2.4760 ca         1 C87      -0.083000
     10 C16          3.3400    -0.0160    -3.6830 cp         1 C87      -0.136500
     11 C21          1.9450    -0.0100    -3.6830 ca         1 C87      -0.083000
     12 C20          1.2570    -0.0120    -2.4900 ca         1 C87      -0.065000
     13 C12          4.0810    -0.0200    -4.9680 cp         1 C87       0.516800
     14 C11          3.3920    -0.0190    -6.1830 ca         1 C87      -0.410600
     15 C10          4.1270    -0.0250    -7.3570 ca         1 C87       0.492200
     16 N15          5.4490    -0.0300    -7.2930 nb         1 C87      -0.685000
     17 C14          6.0750    -0.0300    -6.1250 ca         1 C87       0.706900
     18 N13          5.4120    -0.0200    -4.9790 nb         1 C87      -0.687000
     19 N7           7.4600    -0.0360    -6.1030 nu         1 C87      -0.283300
     20 C1           8.1800    -0.1570    -7.2980 ca         1 C87      -0.030400
     21 C2           9.3990     0.4900    -7.4440 ca         1 C87      -0.089000
     22 C3          10.1090     0.3700    -8.6220 ca         1 C87      -0.128500
     23 C4           9.6030    -0.3980    -9.6630 ca         1 C87       0.008600
     24 C5           8.3830    -1.0460    -9.5170 ca         1 C87      -0.128500
     25 C6           7.6760    -0.9300    -8.3370 ca         1 C87      -0.089000
     26 N8          10.3210    -0.5190   -10.8570 nh         1 C87      -0.362000
     27 C28          9.6070    -1.3730   -11.8180 c3         1 C87       0.096300
     28 C29         10.3960    -1.4300   -13.1280 c3         1 C87       0.215400
     29 O30         11.7190    -1.9040   -12.8610 os         1 C87      -0.410600
     30 C31         12.4440    -1.0950   -11.9300 c3         1 C87       0.215400
     31 C9          11.6750    -1.0360   -10.6080 c3         1 C87       0.096300
     32 H1           2.8910    -0.0110     1.1660 hn         1 C87       0.191500
     33 H2           0.5360     0.8840     2.4940 h1         1 C87       0.041700
     34 H3           0.5350    -0.8850     2.4920 h1         1 C87       0.041700
     35 H4           3.8940    -0.0110    -0.3440 ha         1 C87       0.116500
     36 H5           5.1220    -0.0200    -2.4770 ha         1 C87       0.122000
     37 H6           1.4030    -0.0090    -4.6210 ha         1 C87       0.122000
     38 H7           0.1730    -0.0120    -2.4910 ha         1 C87       0.116500
     39 H8           2.3090    -0.0160    -6.1930 ha         1 C87       0.134000
     40 H9           3.6200    -0.0240    -8.3140 h4         1 C87      -0.016900
     41 H10          7.9460    -0.0660    -5.2290 hn         1 C87       0.291800
     42 H11          9.7940     1.0900    -6.6330 ha         1 C87       0.119000
     43 H12         11.0600     0.8760    -8.7350 ha         1 C87       0.118500
     44 H13          7.9880    -1.6450   -10.3280 ha         1 C87       0.118500
     45 H14          6.7260    -1.4380    -8.2220 ha         1 C87       0.119000
     46 H15          8.6380    -0.9340   -12.0230 h1         1 C87       0.025950
     47 H16          9.4690    -2.3540   -11.3800 h1         1 C87       0.025950
     48 H17          9.9280    -2.1490   -13.7880 h1         1 C87       0.013450
     49 H18         10.3750    -0.4520   -13.5930 h1         1 C87       0.013450
     50 H19         13.3820    -1.5840   -11.6970 h1         1 C87       0.013450
     51 H20         12.6450    -0.1320   -12.3850 h1         1 C87       0.013450
     52 H21         12.2070    -0.3340    -9.9770 h1         1 C87       0.025950
     53 H22         11.5980    -1.9880   -10.0980 h1         1 C87       0.025950
@<TRIPOS>BOND
     1     1     2 2   
     2     2     3 1   
     3     2     7 1   
     4     3     4 1   
     5     3    32 1   
     6     4     5 1   
     7     4    33 1   
     8     4    34 1   
     9     5     6 3   
    10     7     8 ar  
    11     7    12 ar  
    12     8     9 ar  
    13     8    35 1   
    14     9    10 ar  
    15     9    36 1   
    16    10    11 ar  
    17    10    13 1   
    18    11    12 ar  
    19    11    37 1   
    20    12    38 1   
    21    13    14 ar  
    22    13    18 ar  
    23    14    15 ar  
    24    14    39 1   
    25    15    16 ar  
    26    15    40 1   
    27    16    17 ar  
    28    17    18 ar  
    29    17    19 1   
    30    19    20 1   
    31    19    41 1   
    32    20    21 ar  
    33    20    25 ar  
    34    21    22 ar  
    35    21    42 1   
    36    22    23 ar  
    37    22    43 1   
    38    23    24 ar  
    39    23    26 1   
    40    24    25 ar  
    41    24    44 1   
    42    25    45 1   
    43    26    27 1   
    44    26    31 1   
    45    27    28 1   
    46    27    46 1   
    47    27    47 1   
    48    28    29 1   
    49    28    48 1   
    50    28    49 1   
    51    29    30 1   
    52    30    31 1   
    53    30    50 1   
    54    30    51 1   
    55    31    52 1   
    56    31    53 1   
@<TRIPOS>SUBSTRUCTURE
     1 C87         1 TEMP              0 ****  ****    0 ROOT
