@<TRIPOS>MOLECULE
molecule
   53    56     1     0     0
SMALL
bcc


@<TRIPOS>ATOM
      1 O23          0.0000     0.0000     0.0000 o          1 C87      -0.602100
      2 C22          1.2160     0.0000     0.0000 c          1 C87       0.677700
      3 N24          1.8910     0.0000     1.1660 ns         1 C87      -0.587900
      4 C25          1.1590    -0.0010     2.4360 c3         1 C87       0.183100
      5 C26          2.1150    -0.0010     3.5540 c1         1 C87       0.190700
      6 N27          2.8430     0.0130     4.4260 n1         1 C87      -0.346800
      7 C19          1.9540    -0.0060    -1.2810 ca         1 C87      -0.135600
      8 C18          3.3510    -0.0110    -1.2820 ca         1 C87      -0.094500
      9 C17          4.0380    -0.0160    -2.4760 ca         1 C87      -0.104000
     10 C16          3.3400    -0.0160    -3.6830 cp         1 C87      -0.130500
     11 C21          1.9450    -0.0100    -3.6830 ca         1 C87      -0.104000
     12 C20          1.2570    -0.0120    -2.4900 ca         1 C87      -0.094500
     13 C12          4.0810    -0.0200    -4.9680 cp         1 C87       0.554800
     14 C11          3.3920    -0.0190    -6.1830 ca         1 C87      -0.428600
     15 C10          4.1270    -0.0250    -7.3570 ca         1 C87       0.499200
     16 N15          5.4490    -0.0300    -7.2930 nb         1 C87      -0.785000
     17 C14          6.0750    -0.0300    -6.1250 ca         1 C87       0.942900
     18 N13          5.4120    -0.0200    -4.9790 nb         1 C87      -0.796000
     19 N7           7.4600    -0.0360    -6.1030 nu         1 C87      -0.751300
     20 C1           8.1800    -0.1570    -7.2980 ca         1 C87       0.130600
     21 C2           9.3990     0.4900    -7.4440 ca         1 C87      -0.118000
     22 C3          10.1090     0.3700    -8.6220 ca         1 C87      -0.150000
     23 C4           9.6030    -0.3980    -9.6630 ca         1 C87       0.086600
     24 C5           8.3830    -1.0460    -9.5170 ca         1 C87      -0.150000
     25 C6           7.6760    -0.9300    -8.3370 ca         1 C87      -0.118000
     26 N8          10.3210    -0.5190   -10.8570 nh         1 C87      -0.597000
     27 C28          9.6070    -1.3730   -11.8180 c3         1 C87       0.126800
     28 C29         10.3960    -1.4300   -13.1280 c3         1 C87       0.138400
     29 O30         11.7190    -1.9040   -12.8610 os         1 C87      -0.422600
     30 C31         12.4440    -1.0950   -11.9300 c3         1 C87       0.138400
     31 C9          11.6750    -1.0360   -10.6080 c3         1 C87       0.126800
     32 H1           2.8910    -0.0110     1.1660 hn         1 C87       0.326500
     33 H2           0.5360     0.8840     2.4940 h1         1 C87       0.084200
     34 H3           0.5350    -0.8850     2.4920 h1         1 C87       0.084200
     35 H4           3.8940    -0.0110    -0.3440 ha         1 C87       0.145000
     36 H5           5.1220    -0.0200    -2.4770 ha         1 C87       0.151000
     37 H6           1.4030    -0.0090    -4.6210 ha         1 C87       0.151000
     38 H7           0.1730    -0.0120    -2.4910 ha         1 C87       0.145000
     39 H8           2.3090    -0.0160    -6.1930 ha         1 C87       0.148000
     40 H9           3.6200    -0.0240    -8.3140 h4         1 C87       0.032100
     41 H10          7.9460    -0.0660    -5.2290 hn         1 C87       0.464800
     42 H11          9.7940     1.0900    -6.6330 ha         1 C87       0.144500
     43 H12         11.0600     0.8760    -8.7350 ha         1 C87       0.138500
     44 H13          7.9880    -1.6450   -10.3280 ha         1 C87       0.138500
     45 H14          6.7260    -1.4380    -8.2220 ha         1 C87       0.144500
     46 H15          8.6380    -0.9340   -12.0230 h1         1 C87       0.050450
     47 H16          9.4690    -2.3540   -11.3800 h1         1 C87       0.050450
     48 H17          9.9280    -2.1490   -13.7880 h1         1 C87       0.055200
     49 H18         10.3750    -0.4520   -13.5930 h1         1 C87       0.055200
     50 H19         13.3820    -1.5840   -11.6970 h1         1 C87       0.055200
     51 H20         12.6450    -0.1320   -12.3850 h1         1 C87       0.055200
     52 H21         12.2070    -0.3340    -9.9770 h1         1 C87       0.050450
     53 H22         11.5980    -1.9880   -10.0980 h1         1 C87       0.050450
@<TRIPOS>BOND
     1     6     5 3
     2     5     4 1
     3     4     3 1
     4     1     2 2
     5     3     2 1
     6     2     7 1
     7     7    12 ar
     8     7     8 ar
     9    12    11 ar
    10     8     9 ar
    11    11    10 ar
    12     9    10 ar
    13    10    13 1
    14    13    14 ar
    15    13    18 ar
    16    31    30 1
    17    31    26 1
    18    14    15 ar
    19    30    29 1
    20    18    17 ar
    21    29    28 1
    22    24    25 ar
    23    24    23 ar
    24    15    16 ar
    25    25    20 ar
    26    17    16 ar
    27    17    19 1
    28    26    23 1
    29    26    27 1
    30    23    22 ar
    31    20    19 1
    32    20    21 ar
    33    27    28 1
    34    22    21 ar
    35     3    32 1
    36     4    33 1
    37     4    34 1
    38     8    35 1
    39     9    36 1
    40    11    37 1
    41    12    38 1
    42    14    39 1
    43    15    40 1
    44    19    41 1
    45    21    42 1
    46    22    43 1
    47    24    44 1
    48    25    45 1
    49    27    46 1
    50    27    47 1
    51    28    48 1
    52    28    49 1
    53    30    50 1
    54    30    51 1
    55    31    52 1
    56    31    53 1
@<TRIPOS>SUBSTRUCTURE
     1 C87         1 TEMP              0 ****  ****    0 ROOT
