@<TRIPOS>MOLECULE
C88
   50    53     1     0     0
SMALL
bcc


@<TRIPOS>ATOM
      1 CAJ          0.0000     0.0000     0.0000 c3         1 C88      -0.027400
      2 CAH          1.5310     0.0000     0.0000 c3         1 C88       0.149300
      3 NAP          2.0210     0.0000     1.3840 n7         1 C88      -0.578200
      4 CAI          1.5860     1.2060     2.1010 c3         1 C88       0.149300
      5 CAK          0.0580     1.2420     2.1640 c3         1 C88      -0.027400
      6 CAY         -0.5070     1.2400     0.7400 c3         1 C88      -0.073700
      7 CAL         -2.0350     1.2150     0.7970 c3         1 C88      -0.000700
      8 NAZ         -2.5770     1.3340    -0.5590 na         1 C88       0.378200
      9 NAO         -2.8850     2.5370    -1.2040 nc         1 C88      -0.630100
     10 C4          -2.8520     0.2900    -1.3920 ca         1 C88       0.347800
     11 N3          -2.7470    -1.0350    -1.2940 nb         1 C88      -0.695000
     12 C2          -3.1020    -1.8130    -2.2930 ca         1 C88       0.707900
     13 N1          -3.5740    -1.3380    -3.4330 nb         1 C88      -0.745000
     14 C6          -3.7160    -0.0310    -3.6260 ca         1 C88       0.614200
     15 NAC         -4.2110     0.4600    -4.8200 nv         1 C88      -0.545500
     16 C5          -3.3510     0.8410    -2.5870 ca         1 C88      -0.551500
     17 CAV         -3.3480     2.2930    -2.4060 cd         1 C88       0.494500
     18 CAS         -3.7860     3.3020    -3.4000 ca         1 C88      -0.143900
     19 CAG         -4.9680     3.1120    -4.1130 ca         1 C88      -0.069000
     20 CAR         -5.3740     4.0530    -5.0370 ca         1 C88      -0.130300
     21 CAB         -6.6530     3.8490    -5.8080 c3         1 C88       0.074200
     22 CAU         -4.6050     5.1870    -5.2570 ca         1 C88       0.159100
     23 OAQ         -5.0060     6.1130    -6.1670 os         1 C88      -0.304900
     24 CAA         -4.1670     7.2560    -6.3440 c3         1 C88       0.242700
     25 CAE         -3.4260     5.3790    -4.5480 ca         1 C88      -0.210000
     26 CAD         -3.0180     4.4440    -3.6190 ca         1 C88      -0.032000
     27 H1          -0.3600     0.0180    -1.0220 hc         1 C88       0.027450
     28 H2          -0.3600    -0.8910     0.5010 hc         1 C88       0.027450
     29 H3           1.8900     0.8860    -0.5090 h1         1 C88       0.004700
     30 H4           1.8900    -0.8860    -0.5090 h1         1 C88       0.004700
     31 H5           3.0200    -0.0460     1.3840 hn         1 C88       0.249800
     32 H7           1.9450     2.0840     1.5790 h1         1 C88       0.004700
     33 H8           1.9870     1.1900     3.1080 h1         1 C88       0.004700
     34 H9          -0.3010     0.3680     2.6950 hc         1 C88       0.027450
     35 H10         -0.2610     2.1400     2.6780 hc         1 C88       0.027450
     36 H11         -0.1740     2.1310     0.2200 hc         1 C88       0.037700
     37 H12         -2.3880     2.0420     1.4000 h1         1 C88       0.042700
     38 H13         -2.3650     0.2810     1.2360 h1         1 C88       0.042700
     39 H14         -3.0030    -2.8850    -2.1780 h5         1 C88      -0.004900
     40 H15         -4.8990    -0.0610    -5.3270 hn         1 C88       0.283800
     41 H16         -3.8610     1.3210    -5.1900 hn         1 C88       0.283800
     42 H17         -5.5850     2.2430    -3.9190 ha         1 C88       0.121000
     43 H18         -6.4200     3.6490    -6.8470 hc         1 C88       0.009367
     44 H19         -7.1960     3.0100    -5.3910 hc         1 C88       0.009367
     45 H20         -7.2620     4.7430    -5.7400 hc         1 C88       0.009367
     46 H21         -4.0820     7.7890    -5.4050 h1         1 C88      -0.001300
     47 H22         -4.5990     7.9090    -7.0920 h1         1 C88      -0.001300
     48 H23         -3.1840     6.9360    -6.6680 h1         1 C88      -0.001300
     49 H24         -2.8290     6.2670    -4.7210 ha         1 C88       0.124000
     50 H25         -2.0990     4.5950    -3.0670 ha         1 C88       0.114000
@<TRIPOS>BOND
     1     1     2 1   
     2     1     6 1   
     3     1    27 1   
     4     1    28 1   
     5     2     3 1   
     6     2    29 1   
     7     2    30 1   
     8     3     4 1   
     9     3    31 1   
    10     4     5 1   
    11     4    32 1   
    12     4    33 1   
    13     5     6 1   
    14     5    34 1   
    15     5    35 1   
    16     6     7 1   
    17     6    36 1   
    18     7     8 1   
    19     7    37 1   
    20     7    38 1   
    21     8     9 1   
    22     8    10 1   
    23     9    17 2   
    24    10    11 ar  
    25    10    16 ar  
    26    11    12 ar  
    27    12    13 ar  
    28    12    39 1   
    29    13    14 ar  
    30    14    15 1   
    31    14    16 ar  
    32    15    40 1   
    33    15    41 1   
    34    16    17 1   
    35    17    18 1   
    36    18    19 ar  
    37    18    26 ar  
    38    19    20 ar  
    39    19    42 1   
    40    20    21 1   
    41    20    22 ar  
    42    21    43 1   
    43    21    44 1   
    44    21    45 1   
    45    22    23 1   
    46    22    25 ar  
    47    23    24 1   
    48    24    46 1   
    49    24    47 1   
    50    24    48 1   
    51    25    26 ar  
    52    25    49 1   
    53    26    50 1   
@<TRIPOS>SUBSTRUCTURE
     1 C88         1 TEMP              0 ****  ****    0 ROOT
