@<TRIPOS>MOLECULE
molecule
   36    37     1     0     0
SMALL
bcc


@<TRIPOS>ATOM
      1 C10          0.0000     0.0000     0.0000 ca         1 C8A      -0.274300
      2 C13         -0.0790    -2.0760    -2.5370 ca         1 C8A      -0.126000
      3 C15         -1.4590    -4.0320    -2.5310 ca         1 C8A      -0.209000
      4 C17         -2.1550    -2.0730    -1.3440 ca         1 C8A      -0.126000
      5 O01          3.6220    -2.0430     1.6980 o          1 C8A      -0.908833
      6 P02          4.1540    -1.6490     3.1660 p5         1 C8A       1.070200
      7 O03          3.6630    -2.6390     4.1510 o          1 C8A      -0.908833
      8 O04          5.7650    -1.6430     3.1690 o          1 C8A      -0.908833
      9 C05          3.5400     0.0080     3.6120 c3         1 C8A      -0.075900
     10 N06          2.0750     0.0020     3.6090 nu         1 C8A      -0.585600
     11 C07          1.3790     0.0020     2.3980 ca         1 C8A       0.196600
     12 C08          2.0730     0.0000     1.1960 ca         1 C8A      -0.183500
     13 C09          1.3820     0.0000     0.0000 ca         1 C8A      -0.114500
     14 C11         -0.7510    -0.0010    -1.3070 c3         1 C8A       0.053200
     15 C12         -1.0020    -1.4230    -1.7410 ca         1 C8A      -0.050300
     16 C14         -0.3080    -3.3790    -2.9340 ca         1 C8A      -0.137000
     17 C16         -2.3790    -3.3810    -1.7330 ca         1 C8A      -0.137000
     18 C18         -0.6960    -0.0050     1.1960 ca         1 C8A      -0.114500
     19 C19         -0.0100    -0.0030     2.3940 ca         1 C8A      -0.183500
     20 P20          4.1430     0.4530     5.2740 p5         1 C8A       1.070200
     21 O21          3.6520    -0.5370     6.2580 o          1 C8A      -0.908833
     22 O22          5.7520     0.4590     5.2770 o          1 C8A      -0.908833
     23 O23          3.6000     1.9170     5.6670 o          1 C8A      -0.908833
     24 H1           0.8240    -1.5660    -2.8500 ha         1 C8A       0.120500
     25 H2          -1.6370    -5.0550    -2.8390 ha         1 C8A       0.081000
     26 H3          -2.8770    -1.5620    -0.7180 ha         1 C8A       0.120500
     27 H6           3.8990     0.7320     2.8900 h1         1 C8A       0.038700
     28 H7           1.5740    -0.0000     4.4750 hn         1 C8A       0.437800
     29 H8           3.1570    -0.0000     1.1950 ha         1 C8A       0.140500
     30 H9           1.9240    -0.0010    -0.9380 ha         1 C8A       0.062000
     31 H10         -0.1640     0.5080    -2.0610 hc         1 C8A       0.000700
     32 H11         -1.6980     0.5100    -1.1800 hc         1 C8A       0.000700
     33 H12          0.4140    -3.8900    -3.5590 ha         1 C8A       0.088000
     34 H13         -3.2820    -3.8910    -1.4190 ha         1 C8A       0.088000
     35 H14         -1.7790    -0.0070     1.1920 ha         1 C8A       0.062000
     36 H15         -0.5550    -0.0070     3.3310 ha         1 C8A       0.140500
@<TRIPOS>BOND
     1    21    20 1
     2    23    20 1
     3    20    22 1
     4    20     9 1
     5     7     6 1
     6     5     6 1
     7     6     9 1
     8     6     8 1
     9     9    10 1
    10    10    11 1
    11    11    19 ar
    12    11    12 ar
    13    19    18 ar
    14    12    13 ar
    15    18     1 ar
    16    13     1 ar
    17     1    14 1
    18    14    15 1
    19     4    15 ar
    20     4    17 ar
    21    15     2 ar
    22    17     3 ar
    23     2    16 ar
    24     3    16 ar
    25     2    24 1
    26     3    25 1
    27     4    26 1
    28     9    27 1
    29    10    28 1
    30    12    29 1
    31    13    30 1
    32    14    31 1
    33    14    32 1
    34    16    33 1
    35    17    34 1
    36    18    35 1
    37    19    36 1
@<TRIPOS>SUBSTRUCTURE
     1 C8A         1 TEMP              0 ****  ****    0 ROOT
