@<TRIPOS>MOLECULE
molecule
   53    56     1     0     0
SMALL
bcc


@<TRIPOS>ATOM
      1 C1           0.0000     0.0000     0.0000 c          1 C8B       0.656500
      2 C2           1.4990     0.0000     0.0000 c3         1 C8B       0.268200
      3 C3           2.0000    -1.2480    -0.7310 c3         1 C8B      -0.025100
      4 C4           1.4060    -1.2920    -2.1160 ca         1 C8B      -0.086300
      5 C5           2.1030    -0.7570    -3.1830 ca         1 C8B      -0.100000
      6 C6           1.5580    -0.7970    -4.4530 ca         1 C8B      -0.128000
      7 C12         -0.1660    -2.3540     2.3660 c3         1 C8B      -0.012200
      8 C13         -1.6010    -2.8120     2.4010 cc         1 C8B      -0.146400
      9 C14         -2.5000    -2.7720     3.5570 ca         1 C8B      -0.066800
     10 C11         -0.1200    -0.8260     2.3070 c3         1 C8B       0.057700
     11 O5           1.9680     1.1630    -0.6860 oh         1 C8B      -0.570800
     12 O4          -0.9250    -1.5090     6.5260 o          1 C8B      -0.200000
     13 C8          -0.3740    -1.9150    -3.5900 ca         1 C8B      -0.128000
     14 C9           0.1680    -1.8700    -2.3190 ca         1 C8B      -0.100000
     15 C10          1.3050    -0.3730     2.4170 c          1 C8B       0.690500
     16 C15         -2.3630    -2.3450     4.8790 ca         1 C8B      -0.113200
     17 C16         -3.4220    -2.4420     5.7370 ca         1 C8B      -0.085000
     18 C17         -4.6330    -2.9640     5.3050 ca         1 C8B      -0.123000
     19 N4          -1.0740    -1.7900     5.3500 no         1 C8B       0.284200
     20 O3          -0.1630    -1.6110     4.5620 o          1 C8B      -0.200000
     21 C18         -4.7910    -3.3910     4.0050 ca         1 C8B      -0.097000
     22 C19         -3.7270    -3.3000     3.1140 ca         1 C8B      -0.046200
     23 N3          -3.5690    -3.6320     1.7860 na         1 C8B      -0.176400
     24 C20         -2.2990    -3.3300     1.3780 cd         1 C8B      -0.080100
     25 N1          -0.7220    -0.3780     1.0590 n          1 C8B      -0.483800
     26 O1          -0.5810     0.3630    -1.0010 o          1 C8B      -0.615500
     27 N2           2.0290     0.0000     1.3570 n          1 C8B      -0.516800
     28 C7           0.3160    -1.3700    -4.6550 ca         1 C8B      -0.121000
     29 H1           1.7020    -2.1330    -0.1820 hc         1 C8B       0.066200
     30 H2           3.0810    -1.2150    -0.8030 hc         1 C8B       0.066200
     31 H3           3.0760    -0.3080    -3.0250 ha         1 C8B       0.125000
     32 H4           2.1020    -0.3740    -5.2890 ha         1 C8B       0.125500
     33 H5           0.3230    -2.7640     1.4900 hc         1 C8B       0.076700
     34 H6           0.3440    -2.6970     3.2570 hc         1 C8B       0.076700
     35 H7          -0.6840    -0.4170     3.1370 h1         1 C8B       0.109700
     36 H8           1.5080     1.9220    -0.3680 ho         1 C8B       0.419000
     37 H9          -2.6150    -0.4290     1.9500 h1         1 C8B       0.044700
     38 H10         -2.5250    -1.1620     0.3420 h1         1 C8B       0.044700
     39 H11         -2.4910     0.5980     0.5150 h1         1 C8B       0.044700
     40 H12         -1.3460    -2.3660    -3.7480 ha         1 C8B       0.125500
     41 H13         -0.3740    -2.2970    -1.4830 ha         1 C8B       0.125000
     42 H14         -3.3150    -2.1100     6.7630 ha         1 C8B       0.167000
     43 H15         -5.4640    -3.0350     5.9960 ha         1 C8B       0.150000
     44 H16          3.9460    -0.3350     2.1240 h1         1 C8B       0.049367
     45 H17          3.4230     1.3550     2.1300 h1         1 C8B       0.049367
     46 H18          3.8950     0.5810     0.6110 h1         1 C8B       0.049367
     47 H19         -5.7410    -3.7970     3.6780 ha         1 C8B       0.139000
     48 H20         -4.2810    -4.0300     1.2050 hn         1 C8B       0.306700
     49 H21         -1.9130    -3.4880     0.3780 h4         1 C8B       0.179000
     50 H22         -0.1100    -1.4030    -5.6510 ha         1 C8B       0.126000
     51 C21         -2.1830    -0.3400     0.9600 c3         1 C8B       0.101300
     52 O2           1.8230    -0.3440     3.5130 o          1 C8B      -0.601500
     53 C22          3.4130     0.4280     1.5690 c3         1 C8B       0.098300
@<TRIPOS>BOND
     1    13    28 ar
     2    13    14 ar
     3    20    19 1
     4    28     6 ar
     5    14     4 ar
     6    12    19 1
     7    19    16 1
     8     6     5 ar
     9     4     5 ar
    10     4     3 1
    11    17    16 ar
    12    17    18 ar
    13    16     9 ar
    14     3     2 1
    15    26     1 2
    16    18    21 ar
    17     1     2 1
    18     1    25 1
    19     7     8 1
    20     7    10 1
    21    51    25 1
    22     9     8 1
    23     9    22 ar
    24     2    11 1
    25     2    27 1
    26    25    10 1
    27     8    24 2
    28    21    22 ar
    29    10    15 1
    30    22    23 1
    31    27    15 1
    32    27    53 1
    33    15    52 2
    34    24    23 1
    35     3    29 1
    36     3    30 1
    37     5    31 1
    38     6    32 1
    39     7    33 1
    40     7    34 1
    41    10    35 1
    42    11    36 1
    43    51    37 1
    44    51    38 1
    45    51    39 1
    46    13    40 1
    47    14    41 1
    48    17    42 1
    49    18    43 1
    50    53    44 1
    51    53    45 1
    52    53    46 1
    53    21    47 1
    54    23    48 1
    55    24    49 1
    56    28    50 1
@<TRIPOS>SUBSTRUCTURE
     1 C8B         1 TEMP              0 ****  ****    0 ROOT
