@<TRIPOS>MOLECULE
C8B
   53    56     1     0     0
SMALL
bcc


@<TRIPOS>ATOM
      1 C1           0.0000     0.0000     0.0000 c          1 C8B       0.568500
      2 C2           1.4990     0.0000     0.0000 c3         1 C8B       0.186200
      3 C3           2.0000    -1.2480    -0.7310 c3         1 C8B       0.022900
      4 C4           1.4060    -1.2920    -2.1160 ca         1 C8B      -0.086300
      5 C5           2.1030    -0.7570    -3.1830 ca         1 C8B      -0.076000
      6 C6           1.5580    -0.7970    -4.4530 ca         1 C8B      -0.100000
      7 C12         -0.1660    -2.3540     2.3660 c3         1 C8B       0.035800
      8 C13         -1.6010    -2.8120     2.4010 cc         1 C8B      -0.146400
      9 C14         -2.5000    -2.7720     3.5570 ca         1 C8B      -0.039800
     10 C11         -0.1200    -0.8260     2.3070 c3         1 C8B      -0.038300
     11 O5           1.9680     1.1630    -0.6860 oh         1 C8B      -0.557800
     12 O4          -0.9250    -1.5090     6.5260 o          1 C8B      -0.438500
     13 C8          -0.3740    -1.9150    -3.5900 ca         1 C8B      -0.100000
     14 C9           0.1680    -1.8700    -2.3190 ca         1 C8B      -0.076000
     15 C10          1.3050    -0.3730     2.4170 c          1 C8B       0.615500
     16 C15         -2.3630    -2.3450     4.8790 ca         1 C8B      -0.397200
     17 C16         -3.4220    -2.4420     5.7370 ca         1 C8B      -0.019000
     18 C17         -4.6330    -2.9640     5.3050 ca         1 C8B      -0.115000
     19 N4          -1.0740    -1.7900     5.3500 no         1 C8B       1.029200
     20 O3          -0.1630    -1.6110     4.5620 o          1 C8B      -0.438500
     21 C18         -4.7910    -3.3910     4.0050 ca         1 C8B      -0.032000
     22 C19         -3.7270    -3.3000     3.1140 ca         1 C8B      -0.247200
     23 N3          -3.5690    -3.6320     1.7860 na         1 C8B       0.367600
     24 C20         -2.2990    -3.3300     1.3780 cd         1 C8B      -0.250100
     25 N1          -0.7220    -0.3780     1.0590 n          1 C8B      -0.134800
     26 O1          -0.5810     0.3630    -1.0010 o          1 C8B      -0.656500
     27 N2           2.0290     0.0000     1.3570 n          1 C8B      -0.191800
     28 C7           0.3160    -1.3700    -4.6550 ca         1 C8B      -0.097000
     29 H1           1.7020    -2.1330    -0.1820 hc         1 C8B       0.032700
     30 H2           3.0810    -1.2150    -0.8030 hc         1 C8B       0.032700
     31 H3           3.0760    -0.3080    -3.0250 ha         1 C8B       0.099500
     32 H4           2.1020    -0.3740    -5.2890 ha         1 C8B       0.098000
     33 H5           0.3230    -2.7640     1.4900 hc         1 C8B       0.052700
     34 H6           0.3440    -2.6970     3.2570 hc         1 C8B       0.052700
     35 H7          -0.6840    -0.4170     3.1370 h1         1 C8B       0.084700
     36 H8           1.5080     1.9220    -0.3680 ho         1 C8B       0.404000
     37 H9          -2.6150    -0.4290     1.9500 h1         1 C8B       0.016367
     38 H10         -2.5250    -1.1620     0.3420 h1         1 C8B       0.016367
     39 H11         -2.4910     0.5980     0.5150 h1         1 C8B       0.016367
     40 H12         -1.3460    -2.3660    -3.7480 ha         1 C8B       0.098000
     41 H13         -0.3740    -2.2970    -1.4830 ha         1 C8B       0.099500
     42 H14         -3.3150    -2.1100     6.7630 ha         1 C8B       0.133000
     43 H15         -5.4640    -3.0350     5.9960 ha         1 C8B       0.115000
     44 H16          3.9460    -0.3350     2.1240 h1         1 C8B       0.017700
     45 H17          3.4230     1.3550     2.1300 h1         1 C8B       0.017700
     46 H18          3.8950     0.5810     0.6110 h1         1 C8B       0.017700
     47 H19         -5.7410    -3.7970     3.6780 ha         1 C8B       0.104000
     48 H20         -4.2810    -4.0300     1.2050 hn         1 C8B       0.121700
     49 H21         -1.9130    -3.4880     0.3780 h4         1 C8B       0.152000
     50 H22         -0.1100    -1.4030    -5.6510 ha         1 C8B       0.099000
     51 C21         -2.1830    -0.3400     0.9600 c3         1 C8B       0.072300
     52 O2           1.8230    -0.3440     3.5130 o          1 C8B      -0.632500
     53 C22          3.4130     0.4280     1.5690 c3         1 C8B       0.089300
@<TRIPOS>BOND
     1     1     2 1   
     2     1    25 1   
     3     1    26 2   
     4     2     3 1   
     5     2    11 1   
     6     2    27 1   
     7     3     4 1   
     8     3    29 1   
     9     3    30 1   
    10     4     5 ar  
    11     4    14 ar  
    12     5     6 ar  
    13     5    31 1   
    14     6    28 ar  
    15     6    32 1   
    16     7     8 1   
    17     7    10 1   
    18     7    33 1   
    19     7    34 1   
    20     8     9 1   
    21     8    24 2   
    22     9    16 ar  
    23     9    22 ar  
    24    10    15 1   
    25    10    25 1   
    26    10    35 1   
    27    11    36 1   
    28    12    19 1   
    29    13    14 ar  
    30    13    28 ar  
    31    13    40 1   
    32    14    41 1   
    33    15    27 1   
    34    15    52 2   
    35    16    17 ar  
    36    16    19 1   
    37    17    18 ar  
    38    17    42 1   
    39    18    21 ar  
    40    18    43 1   
    41    19    20 1   
    42    21    22 ar  
    43    21    47 1   
    44    22    23 1   
    45    23    24 1   
    46    23    48 1   
    47    24    49 1   
    48    25    51 1   
    49    27    53 1   
    50    28    50 1   
    51    37    51 1   
    52    38    51 1   
    53    39    51 1   
    54    44    53 1   
    55    45    53 1   
    56    46    53 1   
@<TRIPOS>SUBSTRUCTURE
     1 C8B         1 TEMP              0 ****  ****    0 ROOT
