@<TRIPOS>MOLECULE
C8C
   34    36     1     0     0
SMALL
bcc


@<TRIPOS>ATOM
      1 N1           0.0000     0.0000     0.0000 nz         1 C8C       0.207400
      2 C2           1.3510     0.0000     0.0000 cc         1 C8C      -0.045200
      3 C4           3.2810    -0.0000    -1.2180 c          1 C8C       0.469700
      4 C5           4.0080     0.0120    -0.0410 cc         1 C8C      -0.060200
      5 C6           3.3210     0.0150     1.1580 cd         1 C8C       0.103400
      6 C7           4.0600     0.0190     2.4710 c3         1 C8C       0.026800
      7 C8           3.6710     1.1730     3.3710 c3         1 C8C       0.043900
      8 C9           4.0190     2.5340     2.8200 ca         1 C8C      -0.109300
      9 C10          5.3490     2.9190     2.6820 ca         1 C8C      -0.130000
     10 C11          5.6860     4.1740     2.2070 ca         1 C8C      -0.020000
     11 C12          4.6720     5.0690     1.8920 ca         1 C8C      -0.075800
     12 C13          4.6530     6.3840     1.3990 cc         1 C8C      -0.165200
     13 C14          3.3210     6.7710     1.2680 cd         1 C8C      -0.278100
     14 N15          2.5430     5.7510     1.6620 na         1 C8C       0.397600
     15 C16          3.3430     4.6980     2.0480 ca         1 C8C      -0.260200
     16 C17          3.0060     3.4370     2.5150 ca         1 C8C      -0.121000
     17 N18          1.9800     0.0000     1.1980 nd         1 C8C      -0.388300
     18 N3           1.9430    -0.0030    -1.2070 ns         1 C8C       0.153600
     19 O5           3.9210    -0.0070    -2.4180 o          1 C8C      -0.639500
     20 H1N1        -0.3340    -0.8410    -0.4280 hn         1 C8C       0.221467
     21 H1N2        -0.3340     0.0500     0.9420 hn         1 C8C       0.221467
     22 H3           1.4100    -0.0070    -2.0540 hn         1 C8C       0.195500
     23 H5           5.0680    -0.2120    -0.0580 ha         1 C8C       0.173000
     24 H7C1         3.8530    -0.9100     2.9890 hc         1 C8C       0.043200
     25 H7C2         5.1230     0.0770     2.2710 hc         1 C8C       0.043200
     26 H8C1         4.1730     1.0500     4.3230 hc         1 C8C       0.028200
     27 H8C2         2.6020     1.1340     3.5370 hc         1 C8C       0.028200
     28 H10          6.1350     2.2250     2.9530 ha         1 C8C       0.107000
     29 H17          1.9840     3.2210     2.8030 ha         1 C8C       0.094000
     30 H11          6.7250     4.4630     2.1050 ha         1 C8C       0.114000
     31 H13          5.5190     6.9880     1.1610 ha         1 C8C       0.138000
     32 H14          2.9720     7.7310     0.9090 h4         1 C8C       0.151000
     33 H15          1.5430     5.7550     1.6720 hn         1 C8C       0.108700
     34 H131        -0.3340     0.7910    -0.5140 hn         1 C8C       0.221467
@<TRIPOS>BOND
     1     1     2 1   
     2     1    20 1   
     3     1    21 1   
     4     1    34 1   
     5     2    17 2   
     6     2    18 1   
     7     3     4 1   
     8     3    18 1   
     9     3    19 2   
    10     4     5 2   
    11     4    23 1   
    12     5     6 1   
    13     5    17 1   
    14     6     7 1   
    15     6    24 1   
    16     6    25 1   
    17     7     8 1   
    18     7    26 1   
    19     7    27 1   
    20     8     9 ar  
    21     8    16 ar  
    22     9    10 ar  
    23     9    28 1   
    24    10    11 ar  
    25    10    30 1   
    26    11    12 1   
    27    11    15 ar  
    28    12    13 2   
    29    12    31 1   
    30    13    14 1   
    31    13    32 1   
    32    14    15 1   
    33    14    33 1   
    34    15    16 ar  
    35    16    29 1   
    36    18    22 1   
@<TRIPOS>SUBSTRUCTURE
     1 C8C         1 TEMP              0 ****  ****    0 ROOT
