@<TRIPOS>MOLECULE
molecule
   34    36     1     0     0
SMALL
bcc


@<TRIPOS>ATOM
      1 N1           0.0000     0.0000     0.0000 nz         1 C8C      -0.739600
      2 C2           1.3510     0.0000     0.0000 cc         1 C8C       0.428800
      3 C4           3.2810    -0.0000    -1.2180 c          1 C8C       0.612700
      4 C5           4.0080     0.0120    -0.0410 cc         1 C8C      -0.144200
      5 C6           3.3210     0.0150     1.1580 cd         1 C8C       0.161400
      6 C7           4.0600     0.0190     2.4710 c3         1 C8C      -0.028200
      7 C8           3.6710     1.1730     3.3710 c3         1 C8C      -0.024100
      8 C9           4.0190     2.5340     2.8200 ca         1 C8C      -0.096300
      9 C10          5.3490     2.9190     2.6820 ca         1 C8C      -0.152000
     10 C11          5.6860     4.1740     2.2070 ca         1 C8C      -0.064000
     11 C12          4.6720     5.0690     1.8920 ca         1 C8C      -0.073800
     12 C13          4.6530     6.3840     1.3990 cc         1 C8C      -0.205200
     13 C14          3.3210     6.7710     1.2680 cd         1 C8C      -0.103100
     14 N15          2.5430     5.7510     1.6620 na         1 C8C      -0.160400
     15 C16          3.3430     4.6980     2.0480 ca         1 C8C      -0.065200
     16 C17          3.0060     3.4370     2.5150 ca         1 C8C      -0.154000
     17 N18          1.9800     0.0000     1.1980 nd         1 C8C      -0.534300
     18 N3           1.9430    -0.0030    -1.2070 ns         1 C8C      -0.384400
     19 O5           3.9210    -0.0070    -2.4180 o          1 C8C      -0.612500
     20 H1N1        -0.3340    -0.8410    -0.4280 hn         1 C8C       0.479800
     21 H1N2        -0.3340     0.0500     0.9420 hn         1 C8C       0.479800
     22 H3           1.4100    -0.0070    -2.0540 hn         1 C8C       0.365500
     23 H5           5.0680    -0.2120    -0.0580 ha         1 C8C       0.215000
     24 H7C1         3.8530    -0.9100     2.9890 hc         1 C8C       0.079700
     25 H7C2         5.1230     0.0770     2.2710 hc         1 C8C       0.079700
     26 H8C1         4.1730     1.0500     4.3230 hc         1 C8C       0.062200
     27 H8C2         2.6020     1.1340     3.5370 hc         1 C8C       0.062200
     28 H10          6.1350     2.2250     2.9530 ha         1 C8C       0.131000
     29 H17          1.9840     3.2210     2.8030 ha         1 C8C       0.115000
     30 H11          6.7250     4.4630     2.1050 ha         1 C8C       0.147000
     31 H13          5.5190     6.9880     1.1610 ha         1 C8C       0.164000
     32 H14          2.9720     7.7310     0.9090 h4         1 C8C       0.180000
     33 H15          1.5430     5.7550     1.6720 hn         1 C8C       0.294700
     34 H131        -0.3340     0.7910    -0.5140 hn         1 C8C       0.479800
@<TRIPOS>BOND
     1     1     2 1
     2     2    17 2
     3     2    18 1
     4     3     4 1
     5     3    18 1
     6     3    19 2
     7     4     5 2
     8     5     6 1
     9     5    17 1
    10     6     7 1
    11     7     8 1
    12     8     9 ar
    13     8    16 ar
    14     9    10 ar
    15    10    11 ar
    16    11    12 1
    17    11    15 ar
    18    12    13 2
    19    13    14 1
    20    14    15 1
    21    15    16 ar
    22     1    20 1
    23     1    21 1
    24    18    22 1
    25     4    23 1
    26     6    24 1
    27     6    25 1
    28     7    26 1
    29     7    27 1
    30     9    28 1
    31    16    29 1
    32    10    30 1
    33    12    31 1
    34    13    32 1
    35    14    33 1
    36    34     1 1
@<TRIPOS>SUBSTRUCTURE
     1 C8C         1 TEMP              0 ****  ****    0 ROOT
