@<TRIPOS>MOLECULE
molecule
   55    54     1     0     0
SMALL
bcc


@<TRIPOS>ATOM
      1 C1           0.0000     0.0000     0.0000 c3         1 C8E      -0.092100
      2 C2           1.5290     0.0000     0.0000 c3         1 C8E      -0.084400
      3 C3           2.0400     0.0000     1.4430 c3         1 C8E      -0.081400
      4 C4           3.5700     0.0000     1.4430 c3         1 C8E      -0.082400
      5 C5           4.0800    -0.0000     2.8840 c3         1 C8E      -0.080400
      6 C6           5.6100    -0.0020     2.8840 c3         1 C8E      -0.082400
      7 C7           6.1210    -0.0010     4.3270 c3         1 C8E      -0.082400
      8 C8           7.6500    -0.0010     4.3270 c3         1 C8E       0.124400
      9 O9           8.1260    -0.0010     5.6740 os         1 C8E      -0.397600
     10 C10          9.5540    -0.0010     5.6060 c3         1 C8E       0.128400
     11 C11         10.1300    -0.0010     7.0230 c3         1 C8E       0.125400
     12 O12          9.6870    -1.1690     7.7180 os         1 C8E      -0.383600
     13 C13         10.2560    -1.1110     9.0270 c3         1 C8E       0.126400
     14 C14          9.8170    -2.3380     9.8290 c3         1 C8E       0.126400
     15 O15         10.2640    -3.5240     9.1670 os         1 C8E      -0.383600
     16 C16          9.8260    -4.6280     9.9600 c3         1 C8E       0.126400
     17 C17         10.2730    -5.9360     9.3030 c3         1 C8E       0.126400
     18 O18         11.6990    -5.9550     9.2040 os         1 C8E      -0.381600
     19 C19         12.0530    -7.1940     8.5880 c3         1 C8E       0.128400
     20 C20         13.5740    -7.2800     8.4520 c3         1 C8E       0.142400
     21 O21         14.1730    -7.2050     9.7470 oh         1 C8E      -0.598800
     22 H11         -0.3610     0.0000    -1.0210 hc         1 C8E       0.032367
     23 H12         -0.3610     0.8840     0.5110 hc         1 C8E       0.032367
     24 H13         -0.3610    -0.8850     0.5110 hc         1 C8E       0.032367
     25 H21          1.8900    -0.8840    -0.5110 hc         1 C8E       0.039700
     26 H22          1.8900     0.8840    -0.5110 hc         1 C8E       0.039700
     27 H31          1.6790     0.8840     1.9540 hc         1 C8E       0.041700
     28 H32          1.6790    -0.8840     1.9540 hc         1 C8E       0.041700
     29 H41          3.9310    -0.8840     0.9320 hc         1 C8E       0.040700
     30 H42          3.9310     0.8850     0.9320 hc         1 C8E       0.040700
     31 H51          3.7200     0.8840     3.3950 hc         1 C8E       0.043200
     32 H52          3.7190    -0.8850     3.3950 hc         1 C8E       0.043200
     33 H61          5.9700    -0.8870     2.3740 hc         1 C8E       0.040700
     34 H62          5.9720     0.8820     2.3730 hc         1 C8E       0.040700
     35 H71          5.7590     0.8830     4.8370 hc         1 C8E       0.053700
     36 H72          5.7590    -0.8860     4.8380 hc         1 C8E       0.053700
     37 H81          8.0110    -0.8860     3.8160 h1         1 C8E       0.023700
     38 H82          8.0110     0.8830     3.8160 h1         1 C8E       0.023700
     39 H101         9.8910    -0.8860     5.0790 h1         1 C8E       0.033700
     40 H102         9.8910     0.8830     5.0800 h1         1 C8E       0.033700
     41 H111         9.7930     0.8830     7.5500 h1         1 C8E       0.032200
     42 H112        11.2130    -0.0010     6.9720 h1         1 C8E       0.032200
     43 H131         9.9190    -0.2120     9.5290 h1         1 C8E       0.032700
     44 H132        11.3370    -1.0980     8.9500 h1         1 C8E       0.032700
     45 H141         8.7370    -2.3520     9.9050 h1         1 C8E       0.033200
     46 H142        10.2490    -2.2950    10.8210 h1         1 C8E       0.033200
     47 H161        10.2580    -4.5550    10.9510 h1         1 C8E       0.033200
     48 H162         8.7450    -4.6130    10.0350 h1         1 C8E       0.033200
     49 H171         9.9410    -6.7740     9.9030 h1         1 C8E       0.032700
     50 H172         9.8420    -6.0080     8.3120 h1         1 C8E       0.032700
     51 H191        11.5990    -7.2520     7.6060 h1         1 C8E       0.031700
     52 H192        11.6980    -8.0160     9.1980 h1         1 C8E       0.031700
     53 H201        13.9280    -6.4580     7.8420 h1         1 C8E       0.027700
     54 H202        13.8420    -8.2190     7.9830 h1         1 C8E       0.027700
     55 HO2         15.1020    -7.3490     9.6720 ho         1 C8E       0.398000
@<TRIPOS>BOND
     1     1     2 1
     2     1    22 1
     3     1    23 1
     4     1    24 1
     5     2     3 1
     6     2    25 1
     7     2    26 1
     8     3     4 1
     9     3    27 1
    10     3    28 1
    11     4     5 1
    12     4    29 1
    13     4    30 1
    14     5     6 1
    15     5    31 1
    16     5    32 1
    17     6     7 1
    18     6    33 1
    19     6    34 1
    20     7     8 1
    21     7    35 1
    22     7    36 1
    23     8     9 1
    24     8    37 1
    25     8    38 1
    26     9    10 1
    27    10    11 1
    28    10    39 1
    29    10    40 1
    30    11    12 1
    31    11    41 1
    32    11    42 1
    33    12    13 1
    34    13    14 1
    35    13    43 1
    36    13    44 1
    37    14    15 1
    38    14    45 1
    39    14    46 1
    40    15    16 1
    41    16    17 1
    42    16    47 1
    43    16    48 1
    44    17    18 1
    45    17    49 1
    46    17    50 1
    47    18    19 1
    48    19    20 1
    49    19    51 1
    50    19    52 1
    51    20    21 1
    52    20    53 1
    53    20    54 1
    54    21    55 1
@<TRIPOS>SUBSTRUCTURE
     1 C8E         1 TEMP              0 ****  ****    0 ROOT
