@<TRIPOS>MOLECULE
C8E
   55    54     1     0     0
SMALL
bcc


@<TRIPOS>ATOM
      1 C1         -0.8150    2.1590    0.5050 c3        1 C8E     -0.093100
      2 C2          0.4690    1.3900    0.3320 c3        1 C8E     -0.080400
      3 C3          1.3310    1.4600    1.5740 c3        1 C8E     -0.079400
      4 C4          2.6190    0.6850    1.3960 c3        1 C8E     -0.079400
      5 C5          3.4790    0.7560    2.6390 c3        1 C8E     -0.078400
      6 C6          4.7670   -0.0200    2.4600 c3        1 C8E     -0.078400
      7 C7          5.6240    0.0530    3.7050 c3        1 C8E     -0.083400
      8 C8          6.9100   -0.7300    3.5100 c3        1 C8E      0.132400
      9 O9          7.6490   -0.6090    4.7240 os        1 C8E     -0.428600
     10 C10         8.8980   -1.2940    4.6650 c3        1 C8E      0.126400
     11 C11         9.5010   -1.2130    6.0640 c3        1 C8E      0.127400
     12 O12         9.4610   -2.5350    6.5980 os        1 C8E     -0.429600
     13 C13         9.8360   -2.5730    7.9730 c3        1 C8E      0.127400
     14 C14         9.9100   -4.0460    8.3610 c3        1 C8E      0.127400
     15 O15        11.2950   -4.3650    8.4800 os        1 C8E     -0.428600
     16 C16        11.5130   -5.7610    8.6730 c3        1 C8E      0.127400
     17 C17        13.0020   -5.9310    8.9540 c3        1 C8E      0.128400
     18 O18        13.1220   -6.2320   10.3430 os        1 C8E     -0.438600
     19 C19        14.4790   -6.2460   10.7810 c3        1 C8E      0.087400
     20 C20        14.4450   -6.6390   12.2540 c3        1 C8E      0.131400
     21 O21        13.9940   -7.9660   12.4290 oh        1 C8E     -0.600800
     22 H11        -1.4340    2.0950   -0.4210 hc        1 C8E      0.032700
     23 H12        -0.6040    3.2360    0.7150 hc        1 C8E      0.032700
     24 H13        -1.4090    1.7480    1.3560 hc        1 C8E      0.032700
     25 H21         0.2370    0.3170    0.0980 hc        1 C8E      0.038700
     26 H22         1.0400    1.8010   -0.5420 hc        1 C8E      0.038700
     27 H31         0.7620    1.0470    2.4490 hc        1 C8E      0.039700
     28 H32         1.5660    2.5310    1.8080 hc        1 C8E      0.039700
     29 H41         3.1880    1.0970    0.5200 hc        1 C8E      0.039200
     30 H42         2.3840   -0.3870    1.1610 hc        1 C8E      0.039200
     31 H51         2.9110    0.3440    3.5140 hc        1 C8E      0.041700
     32 H52         3.7160    1.8270    2.8730 hc        1 C8E      0.041700
     33 H61         4.5310   -1.0920    2.2270 hc        1 C8E      0.040200
     34 H62         5.3360    0.3920    1.5850 hc        1 C8E      0.040200
     35 H71         5.0670   -0.3620    4.5850 hc        1 C8E      0.054700
     36 H72         5.8710    1.1200    3.9430 hc        1 C8E      0.054700
     37 H81         6.6950   -1.8130    3.3060 h1        1 C8E      0.025700
     38 H82         7.5120   -0.3110    2.6600 h1        1 C8E      0.025700
     39 H101        9.5640   -0.7830    3.9210 h1        1 C8E      0.042200
     40 H102        8.7420   -2.3620    4.3590 h1        1 C8E      0.042200
     41 H111        8.9100   -0.5130    6.7120 h1        1 C8E      0.043700
     42 H112       10.5680   -0.8700    6.0130 h1        1 C8E      0.043700
     43 H131        9.0550   -2.0470    8.5830 h1        1 C8E      0.043700
     44 H132       10.8300   -2.0720    8.1180 h1        1 C8E      0.043700
     45 H141        9.4290   -4.6890    7.5770 h1        1 C8E      0.044200
     46 H142        9.4080   -4.2160    9.3500 h1        1 C8E      0.044200
     47 H161       11.2260   -6.3120    7.7390 h1        1 C8E      0.043200
     48 H162       10.8990   -6.1340    9.5350 h1        1 C8E      0.043200
     49 H171       13.4190   -6.7850    8.3570 h1        1 C8E      0.045200
     50 H172       13.5640   -4.9900    8.7110 h1        1 C8E      0.045200
     51 H191       14.9300   -5.2280   10.6540 h1        1 C8E      0.039200
     52 H192       15.0610   -6.9950   10.1830 h1        1 C8E      0.039200
     53 H201       13.7880   -5.9300   12.8250 h1        1 C8E      0.053200
     54 H202       15.4850   -6.6250   12.6760 h1        1 C8E      0.053200
     55 HO2        13.1230   -8.0240   12.0150 ho        1 C8E      0.412000
@<TRIPOS>BOND
     1    1    2 1   
     2    1   22 1   
     3    1   23 1   
     4    1   24 1   
     5    2    3 1   
     6    2   25 1   
     7    2   26 1   
     8    3    4 1   
     9    3   27 1   
    10    3   28 1   
    11    4    5 1   
    12    4   29 1   
    13    4   30 1   
    14    5    6 1   
    15    5   31 1   
    16    5   32 1   
    17    6    7 1   
    18    6   33 1   
    19    6   34 1   
    20    7    8 1   
    21    7   35 1   
    22    7   36 1   
    23    8    9 1   
    24    8   37 1   
    25    8   38 1   
    26    9   10 1   
    27   10   11 1   
    28   10   39 1   
    29   10   40 1   
    30   11   12 1   
    31   11   41 1   
    32   11   42 1   
    33   12   13 1   
    34   13   14 1   
    35   13   43 1   
    36   13   44 1   
    37   14   15 1   
    38   14   45 1   
    39   14   46 1   
    40   15   16 1   
    41   16   17 1   
    42   16   47 1   
    43   16   48 1   
    44   17   18 1   
    45   17   49 1   
    46   17   50 1   
    47   18   19 1   
    48   19   20 1   
    49   19   51 1   
    50   19   52 1   
    51   20   21 1   
    52   20   53 1   
    53   20   54 1   
    54   21   55 1   
@<TRIPOS>SUBSTRUCTURE
     1 C8E         1 TEMP              0 ****  ****    0 ROOT
