@<TRIPOS>MOLECULE
C8G
   51    53     1     0     0
SMALL
bcc


@<TRIPOS>ATOM
      1 O1           0.0000     0.0000     0.0000 o          1 C8G      -0.638100
      2 C2           2.6140     4.5180    11.2920 ca         1 C8G       0.083100
      3 N3           1.8870     0.0000     1.1670 nj         1 C8G      -0.203800
      4 C4           3.4550     2.7330     8.0920 c3         1 C8G       0.088800
      5 C5           3.6620     1.2570     7.8720 c          1 C8G       0.584100
      6 C6           4.1660    -0.6430     6.4060 c3         1 C8G       0.049000
      7 C7           3.2890    -1.0740     5.2260 c3         1 C8G       0.127300
      8 C9           3.3000     0.0070     1.5720 cy         1 C8G       0.030500
      9 C11          1.9670     0.0000    -1.3060 c3         1 C8G      -0.094400
     10 C12          0.9710     0.0010    -2.4690 c3         1 C8G       0.020900
     11 C13          1.5340    -0.0000     2.5940 cy         1 C8G       0.030500
     12 C14          3.2130     1.1880     4.3550 c3         1 C8G       0.127300
     13 C16          2.9710     5.3460     9.0620 ca         1 C8G      -0.175000
     14 C17          2.7390     6.6350     9.5070 ca         1 C8G      -0.011600
     15 Cl1          2.8160     7.9640     8.3910 cl         1 C8G      -0.015400
     16 C            2.4400     6.8670    10.8380 ca         1 C8G      -0.063600
     17 Cl           2.1510     8.4860    11.3920 cl         1 C8G      -0.012400
     18 C3           2.9090     4.2830     9.9510 ca         1 C8G       0.053600
     19 C1           2.3850     5.8110    11.7320 ca         1 C8G      -0.133000
     20 N            3.1440     2.9780     9.5020 nu         1 C8G      -0.404600
     21 O2           3.5600     0.4850     8.8030 o          1 C8G      -0.643100
     22 N1           3.9600     0.7930     6.6430 n          1 C8G      -0.150800
     23 C15          4.0870     1.7120     5.5010 c3         1 C8G       0.049000
     24 N2           3.5680    -0.2080     4.0720 n3         1 C8G      -0.514600
     25 C8           2.8750    -0.6940     2.8700 cy         1 C8G       0.089500
     26 C10          1.2130     0.0000     0.0000 c          1 C8G       0.626100
     27 H1           4.3570     3.2680     7.8220 h1         1 C8G       0.028700
     28 H2           2.6330     3.0780     7.4760 h1         1 C8G       0.028700
     29 H3           3.8840    -1.2010     7.2910 h1         1 C8G       0.037700
     30 H4           5.2080    -0.8260     6.1700 h1         1 C8G       0.037700
     31 H5           3.5120    -2.1020     4.9670 h1         1 C8G       0.024450
     32 H6           2.2450    -0.9840     5.5010 h1         1 C8G       0.024450
     33 H7           3.6870     1.0050     1.7380 h1         1 C8G       0.035200
     34 H8           3.9230    -0.6160     0.9410 h1         1 C8G       0.035200
     35 H9           2.4840     0.9520    -1.2730 hc         1 C8G       0.025700
     36 H10          2.6860    -0.7970    -1.4460 hc         1 C8G       0.025700
     37 H11          0.3480    -0.8840    -2.4120 hc         1 C8G       0.009700
     38 H12          1.5120     0.0020    -3.4070 hc         1 C8G       0.009700
     39 H13          0.3480     0.8850    -2.4110 hc         1 C8G       0.009700
     40 H14          0.6800    -0.6290     2.8170 h1         1 C8G       0.035200
     41 H15          1.4790     0.9960     3.0150 h1         1 C8G       0.035200
     42 H16          3.3820     1.7900     3.4700 h1         1 C8G       0.024450
     43 H17          2.1700     1.2440     4.6430 h1         1 C8G       0.024450
     44 H18          3.2000     5.1660     8.0180 ha         1 C8G       0.124000
     45 H19          2.8290     3.7760    13.0230 ho         1 C8G       0.407000
     46 H20          2.1530     5.9960    12.7740 ha         1 C8G       0.121000
     47 H21          3.0930     2.2120    10.1430 hn         1 C8G       0.336800
     48 H22          3.7510     2.7010     5.7900 h1         1 C8G       0.037700
     49 H23          5.1210     1.7520     5.1790 h1         1 C8G       0.037700
     50 H25          2.8250    -1.7720     2.7750 h1         1 C8G       0.068700
     51 O            2.5590     3.4810    12.1700 oh         1 C8G      -0.480100
@<TRIPOS>BOND
     1     1    26 2   
     2     2    18 ar  
     3     2    19 ar  
     4     2    51 1   
     5     3     8 1   
     6     3    11 1   
     7     3    26 1   
     8     4     5 1   
     9     4    20 1   
    10     4    27 1   
    11     4    28 1   
    12     5    21 2   
    13     5    22 1   
    14     6     7 1   
    15     6    22 1   
    16     6    29 1   
    17     6    30 1   
    18     7    24 1   
    19     7    31 1   
    20     7    32 1   
    21     8    25 1   
    22     8    33 1   
    23     8    34 1   
    24     9    10 1   
    25     9    26 1   
    26     9    35 1   
    27     9    36 1   
    28    10    37 1   
    29    10    38 1   
    30    10    39 1   
    31    11    25 1   
    32    11    40 1   
    33    11    41 1   
    34    12    23 1   
    35    12    24 1   
    36    12    42 1   
    37    12    43 1   
    38    13    14 ar  
    39    13    18 ar  
    40    13    44 1   
    41    14    15 1   
    42    14    16 ar  
    43    16    17 1   
    44    16    19 ar  
    45    18    20 1   
    46    19    46 1   
    47    20    47 1   
    48    22    23 1   
    49    23    48 1   
    50    23    49 1   
    51    24    25 1   
    52    25    50 1   
    53    45    51 1   
@<TRIPOS>SUBSTRUCTURE
     1 C8G         1 TEMP              0 ****  ****    0 ROOT
