@<TRIPOS>MOLECULE
molecule
   52    55     1     0     0
SMALL
bcc


@<TRIPOS>ATOM
      1 C1           0.0000     0.0000     0.0000 c          1 C8H       0.689500
      2 C2           1.4990     0.0000     0.0000 c3         1 C8H       0.052700
      3 C3           2.0000    -1.2450    -0.7340 c3         1 C8H      -0.045100
      4 C4           1.6360    -1.1500    -2.1920 ca         1 C8H      -0.089300
      5 C5           2.4990    -0.5400    -3.0830 ca         1 C8H      -0.108000
      6 C6           2.1630    -0.4520    -4.4210 ca         1 C8H      -0.124500
      7 C7           0.9650    -0.9750    -4.8690 ca         1 C8H      -0.124000
      8 C12         -0.1630    -2.3570     2.3640 c3         1 C8H      -0.013200
      9 C13         -1.5970    -2.8140     2.4540 cc         1 C8H      -0.145400
     10 C14         -2.4450    -2.7910     3.6470 ca         1 C8H      -0.066800
     11 C10          1.3060    -0.3750     2.4170 c          1 C8H       0.690500
     12 N2           2.0290     0.0000     1.3570 n          1 C8H      -0.492800
     13 C22          3.4130     0.4290     1.5690 c3         1 C8H       0.101300
     14 C8           0.1010    -1.5860    -3.9780 ca         1 C8H      -0.124500
     15 C9           0.4390    -1.6800    -2.6410 ca         1 C8H      -0.108000
     16 O1          -0.5810     0.3540    -1.0030 o          1 C8H      -0.636500
     17 N1          -0.7210    -0.3800     1.0590 n          1 C8H      -0.485800
     18 C21         -2.1830    -0.3430     0.9610 c3         1 C8H       0.103300
     19 C11         -0.1190    -0.8280     2.3070 c3         1 C8H       0.062700
     20 C15         -2.2510    -2.3830     4.9690 ca         1 C8H      -0.112200
     21 N4          -0.9430    -1.8350     5.3920 no         1 C8H       0.284200
     22 O3          -0.7330    -1.5960     6.5680 o          1 C8H      -0.199500
     23 O4          -0.0750    -1.6220     4.5640 o          1 C8H      -0.199500
     24 C20         -2.3400    -3.3160     1.4540 cd         1 C8H      -0.081100
     25 N3          -3.5930    -3.6190     1.9110 na         1 C8H      -0.176400
     26 C19         -3.6910    -3.3110     3.2500 ca         1 C8H      -0.047200
     27 C18         -4.7160    -3.4120     4.1840 ca         1 C8H      -0.098000
     28 C17         -4.5020    -3.0050     5.4820 ca         1 C8H      -0.123000
     29 C16         -3.2720    -2.4920     5.8700 ca         1 C8H      -0.086000
     30 H1           1.8510     0.8860    -0.5150 h1         1 C8H       0.093700
     31 H2           1.5410    -2.1270    -0.3040 hc         1 C8H       0.057700
     32 H3           3.0770    -1.3150    -0.6340 hc         1 C8H       0.057700
     33 H4           3.4380    -0.1300    -2.7320 ha         1 C8H       0.124500
     34 H5           2.8400     0.0260    -5.1180 ha         1 C8H       0.127500
     35 H6           0.7010    -0.9040    -5.9170 ha         1 C8H       0.128000
     36 H7           0.3820    -2.7020     3.2340 hc         1 C8H       0.076200
     37 H8           0.2900    -2.7650     1.4680 hc         1 C8H       0.076200
     38 H9           3.8250     0.7940     0.6360 h1         1 C8H       0.045700
     39 H10          3.4360     1.2200     2.3090 h1         1 C8H       0.045700
     40 H11          4.0010    -0.4100     1.9200 h1         1 C8H       0.045700
     41 H12         -0.8370    -1.9980    -4.3300 ha         1 C8H       0.127500
     42 H13         -0.2370    -2.1580    -1.9440 ha         1 C8H       0.124500
     43 H14         -2.6150    -0.4860     1.9440 h1         1 C8H       0.043367
     44 H15         -2.4940     0.6170     0.5660 h1         1 C8H       0.043367
     45 H16         -2.5210    -1.1320     0.2990 h1         1 C8H       0.043367
     46 H17         -0.6830    -0.4210     3.1370 h1         1 C8H       0.107700
     47 H18         -1.9960    -3.4620     0.4370 h4         1 C8H       0.179000
     48 H19         -4.3300    -4.0070     1.3560 hn         1 C8H       0.305700
     49 H20         -5.6800    -3.8110     3.8920 ha         1 C8H       0.138000
     50 H21         -5.3030    -3.0860     6.2080 ha         1 C8H       0.149000
     51 H22         -3.1200    -2.1770     6.8960 ha         1 C8H       0.167000
     52 O2           1.8250    -0.3470     3.5130 o          1 C8H      -0.606500
@<TRIPOS>BOND
     1    14    15 ar
     2    14     7 ar
     3    22    21 1
     4    15     4 ar
     5     7     6 ar
     6    23    21 1
     7    21    20 1
     8     4     3 1
     9     4     5 ar
    10     6     5 ar
    11     3     2 1
    12    16     1 2
    13    29    20 ar
    14    29    28 ar
    15    20    10 ar
    16    18    17 1
    17     1     2 1
    18     1    17 1
    19     2    12 1
    20    17    19 1
    21    28    27 ar
    22     8     9 1
    23     8    19 1
    24    10     9 1
    25    10    26 ar
    26     9    24 2
    27    12    13 1
    28    12    11 1
    29    19    11 1
    30    27    26 ar
    31    11    52 2
    32    26    25 1
    33    24    25 1
    34     2    30 1
    35     3    31 1
    36     3    32 1
    37     5    33 1
    38     6    34 1
    39     7    35 1
    40     8    36 1
    41     8    37 1
    42    13    38 1
    43    13    39 1
    44    13    40 1
    45    14    41 1
    46    15    42 1
    47    18    43 1
    48    18    44 1
    49    18    45 1
    50    19    46 1
    51    24    47 1
    52    25    48 1
    53    27    49 1
    54    28    50 1
    55    29    51 1
@<TRIPOS>SUBSTRUCTURE
     1 C8H         1 TEMP              0 ****  ****    0 ROOT
