@<TRIPOS>MOLECULE
C8J
   71    75     1     0     0
SMALL
bcc


@<TRIPOS>ATOM
      1 C4           0.0000     0.0000     0.0000 c2         1 C8J      -0.386000
      2 C14         -7.1760    -6.0760    -2.7280 c2         1 C8J       0.098000
      3 C5           1.4050     0.0000     0.0000 c2         1 C8J      -0.183000
      4 C6           2.0680     0.0000     1.2390 c2         1 C8J       0.081000
      5 C11         -7.6780    -5.7470    -5.1470 ca         1 C8J      -0.087000
      6 C7          -5.2690    -4.4210    -5.5080 ca         1 C8J      -0.075000
      7 C8           0.7590     0.0020    -2.0710 c2         1 C8J      -0.211000
      8 C9          -6.1290    -4.6100    -6.5750 ca         1 C8J      -0.010000
      9 C10         -7.3330    -5.2660    -6.3920 ca         1 C8J      -0.072000
     10 C12         -6.8120    -5.5640    -4.0680 ca         1 C8J      -0.216000
     11 C13         -5.6020    -4.8960    -4.2570 ca         1 C8J       0.020000
     12 N1           1.3370    -0.0010     2.3490 n2         1 C8J      -0.071000
     13 C3          -3.9590    -3.7040    -5.7170 c3         1 C8J      -0.068000
     14 N3          -0.6460    -0.0010     1.1610 n2         1 C8J       0.579000
     15 N            1.7930    -1.9750    -7.9130 nz         1 C8J       0.817000
     16 CA           0.9950    -1.0590    -8.7370 c3         1 C8J      -0.257000
     17 C            1.4400    -1.1570   -10.1730 c2         1 C8J       0.366000
     18 O            2.0480    -2.1300   -10.5520 o          1 C8J      -0.540500
     19 CB          -0.4840    -1.4370    -8.6340 c3         1 C8J      -0.295000
     20 CG          -2.4470    -1.5970    -7.0970 c3         1 C8J      -0.092000
     21 ND          -2.8800    -1.5060    -5.6960 n3         1 C8J       0.026000
     22 CE          -4.1570    -2.2050    -5.4930 c3         1 C8J      -0.120000
     23 C1          -0.9690    -1.2190    -7.2000 c3         1 C8J      -0.062000
     24 C1'         -1.7520     0.0070    -1.8270 c3         1 C8J       0.057000
     25 C2           0.0170    -0.0010     2.2980 c2         1 C8J      -0.458000
     26 C2'         -2.2720     1.4560    -1.9720 c3         1 C8J      -0.021000
     27 C3'         -3.1320     1.4180    -3.2570 DU         1 C8J       0.040000
     28 C4'         -3.0270    -0.0470    -3.7350 c3         1 C8J      -0.134000
     29 C5'         -2.9710    -0.1050    -5.2630 c3         1 C8J      -0.455000
     30 N16         -8.3460    -6.7210    -2.5480 nz         1 C8J       0.815000
     31 N6           3.4510    -0.0010     1.3020 nv         1 C8J      -0.026000
     32 N7           1.8050     0.0010    -1.2940 n2         1 C8J      -0.034000
     33 N9          -0.3780     0.0060    -1.3200 na         1 C8J       0.282000
     34 O15         -6.4200    -5.9150    -1.7900 o          1 C8J      -0.188000
     35 O2'         -3.0720     1.8150    -0.8450 oh         1 C8J      -0.264000
     36 O3'         -4.4880     1.7540    -2.9610 oh         1 C8J      -0.224000
     37 O4'         -1.7950    -0.5350    -3.1650 os         1 C8J      -0.243000
     38 H2           0.7890    -0.0010    -3.1540 h5         1 C8J       0.163000
     39 H3          -5.8620    -4.2340    -7.5560 ha         1 C8J       0.129000
     40 H4          -8.0040    -5.4100    -7.2310 ha         1 C8J       0.130000
     41 H5          -4.9270    -4.7480    -3.4220 ha         1 C8J       0.140000
     42 H6          -3.2250    -4.0810    -5.0140 hc         1 C8J       0.082500
     43 H7          -3.6100    -3.8750    -6.7280 hc         1 C8J       0.082500
     44 H9           1.7690    -1.6730    -6.9590 hn         1 C8J       0.013000
     45 H11          1.1330    -0.0440    -8.3850 hx         1 C8J       0.104000
     46 H12         -0.1720    -0.4110    -8.4820 hc         1 C8J       0.139000
     47 H13         -1.1650    -1.3530    -9.4720 hc         1 C8J       0.139000
     48 H14         -2.5860    -2.6100    -7.4530 h1         1 C8J       0.060500
     49 H15         -3.0360    -0.9180    -7.7020 h1         1 C8J       0.060500
     50 H17         -4.8900    -1.8280    -6.1960 h1         1 C8J       0.064000
     51 H18         -4.5050    -2.0340    -4.4810 h1         1 C8J       0.064000
     52 H20         -0.3900    -1.8370    -6.5250 hc         1 C8J       0.044500
     53 H21         -0.8430    -0.1770    -6.9320 hc         1 C8J       0.044500
     54 H22         -2.4030    -0.5600    -1.1720 h2         1 C8J       0.109000
     55 H23         -0.6540    -0.1920     1.4690 h5         1 C8J       0.035000
     56 H24         -1.4440     2.1430    -2.0930 h1         1 C8J       0.071000
     57 H25         -2.3640     2.1560    -3.4550 ha         1 C8J       0.080000
     58 H26         -2.6720     0.8770    -4.1740 DU         1 C8J       0.222000
     59 H27         -3.8320    -0.4910    -4.7310 h1         1 C8J       0.190000
     60 H28         -3.4070     0.6550    -5.8990 h1         1 C8J       0.190000
     61 H29         -9.1040    -6.1020    -2.7580 hn         1 C8J       0.042667
     62 H30         -8.3860    -7.5150    -3.1560 hn         1 C8J       0.042667
     63 H31          3.9620     0.8380     1.1060 hn         1 C8J       0.083000
     64 H32          3.9410    -0.8410     1.5370 hn         1 C8J       0.083000
     65 H33         -2.9660     2.7340    -0.6640 ho         1 C8J       0.203000
     66 H34         -4.6990     2.5850    -3.3540 ho         1 C8J       0.190000
     67 OXT          1.1610    -0.1630   -11.0320 o          1 C8J      -0.540500
     68 H1          -8.6210    -6.2610    -5.0050 ha         1 C8J       0.083000
     69 H2A          1.4160    -2.9000    -7.9810 hn         1 C8J       0.013000
     70 H163        -8.4220    -7.0140    -1.5950 hn         1 C8J       0.042667
     71 H8           2.7390    -1.9780    -8.2390 hn         1 C8J       0.013000
@<TRIPOS>BOND
     1     1     3 1   
     2     1    14 1   
     3     1    33 1   
     4     2    10 1   
     5     2    30 1   
     6     2    34 1   
     7     3     4 1   
     8     3    32 1   
     9     4    12 1   
    10     4    31 1   
    11     5     9 1   
    12     5    10 1   
    13     5    68 1   
    14     6     8 1   
    15     6    11 1   
    16     6    13 1   
    17     7    32 1   
    18     7    33 1   
    19     7    38 1   
    20     8     9 1   
    21     8    39 1   
    22     9    40 1   
    23    10    11 1   
    24    11    41 1   
    25    12    25 1   
    26    13    22 1   
    27    13    42 1   
    28    13    43 1   
    29    14    25 1   
    30    15    16 1   
    31    15    44 1   
    32    15    69 1   
    33    15    71 1   
    34    16    17 1   
    35    16    19 1   
    36    16    45 1   
    37    17    18 1   
    38    17    67 1   
    39    19    23 1   
    40    19    46 1   
    41    19    47 1   
    42    20    21 1   
    43    20    23 1   
    44    20    48 1   
    45    20    49 1   
    46    21    22 1   
    47    21    29 1   
    48    22    50 1   
    49    22    51 1   
    50    23    52 1   
    51    23    53 1   
    52    24    26 1   
    53    24    33 1   
    54    24    37 1   
    55    24    54 1   
    56    25    55 1   
    57    26    27 1   
    58    26    35 1   
    59    26    56 1   
    60    27    28 1   
    61    27    36 1   
    62    27    57 1   
    63    27    58 1   
    64    28    29 1   
    65    28    37 1   
    66    28    58 1   
    67    29    59 1   
    68    29    60 1   
    69    30    61 1   
    70    30    62 1   
    71    30    70 1   
    72    31    63 1   
    73    31    64 1   
    74    35    65 1   
    75    36    66 1   
@<TRIPOS>SUBSTRUCTURE
     1 C8J         1 TEMP              0 ****  ****    0 ROOT
