@<TRIPOS>MOLECULE
molecule
   31    33     1     0     0
SMALL
bcc


@<TRIPOS>ATOM
      1 C3           0.0000     0.0000     0.0000 ca         1 C8K       0.343800
      2 C4           1.3960     0.0000     0.0000 ca         1 C8K       0.079600
      3 C1          -0.0600     0.0020     2.3060 ca         1 C8K       0.422200
      4 N2          -0.6740     0.0010     1.1440 nb         1 C8K      -0.654000
      5 C5           2.0700     0.0000     1.2140 ca         1 C8K      -0.124000
      6 C6           1.3250     0.0020     2.3830 ca         1 C8K      -0.107200
      7 F13          2.0820    -0.0020    -1.1640 f          1 C8K      -0.094900
      8 Br1          2.1890     0.0020     4.0650 br         1 C8K      -0.061100
      9 C15         -0.7340     0.0060    -1.2850 c          1 C8K       0.569600
     10 N16         -2.0810     0.0120    -1.2900 ns         1 C8K      -0.564900
     11 O17         -0.1220     0.0050    -2.3340 o          1 C8K      -0.589100
     12 C18         -2.8090     0.0170    -2.5620 c3         1 C8K       0.166300
     13 C19         -4.2920     0.0240    -2.2930 ca         1 C8K      -0.117300
     14 C20         -4.9650     1.2240    -2.1680 ca         1 C8K      -0.097000
     15 C21         -6.3280     1.2320    -1.9200 ca         1 C8K       0.046100
     16 C22         -7.0170     0.0290    -1.7990 ca         1 C8K       0.058100
     17 C23         -6.3360    -1.1710    -1.9260 ca         1 C8K      -0.117000
     18 C24         -4.9760    -1.1720    -2.1780 ca         1 C8K      -0.107000
     19 O25         -8.3330     0.3010    -1.5590 os         1 C8K      -0.322900
     20 O26         -7.2120     2.2600    -1.7580 os         1 C8K      -0.322900
     21 C27         -8.3690     1.6750    -1.1300 c3         1 C8K       0.331200
     22 H1          -0.6450     0.0030     3.2180 h4         1 C8K       0.043100
     23 H2           3.1530     0.0000     1.2480 ha         1 C8K       0.172000
     24 H3          -2.5850     0.0330    -0.4260 hn         1 C8K       0.337500
     25 H4          -2.5490    -0.8680    -3.1310 h1         1 C8K       0.062200
     26 H5          -2.5410     0.9010    -3.1280 h1         1 C8K       0.062200
     27 H6          -4.4300     2.1590    -2.2820 ha         1 C8K       0.150000
     28 H7          -6.8700    -2.1090    -1.8360 ha         1 C8K       0.147000
     29 H8          -4.4490    -2.1110    -2.2930 ha         1 C8K       0.145000
     30 H9          -9.2740     2.1570    -1.4800 h2         1 C8K       0.071200
     31 H10         -8.2890     1.7380    -0.0520 h2         1 C8K       0.071200
@<TRIPOS>BOND
     1    18    17 ar
     2    18    13 ar
     3    17    16 ar
     4    12    13 1
     5    12    10 1
     6    13    14 ar
     7    16    19 1
     8    16    15 ar
     9    19    21 1
    10    15    14 ar
    11    15    20 1
    12    21    20 1
    13    10     9 1
    14    11     9 2
    15     9     1 1
    16     1     4 ar
    17     1     2 ar
    18     4     3 ar
    19     7     2 1
    20     2     5 ar
    21     3     6 ar
    22     5     6 ar
    23     6     8 1
    24     3    22 1
    25     5    23 1
    26    10    24 1
    27    12    25 1
    28    12    26 1
    29    14    27 1
    30    17    28 1
    31    18    29 1
    32    21    30 1
    33    21    31 1
@<TRIPOS>SUBSTRUCTURE
     1 C8K         1 TEMP              0 ****  ****    0 ROOT
