@<TRIPOS>MOLECULE
C8M
   50    52     1     0     0
SMALL
bcc


@<TRIPOS>ATOM
      1 N1           0.0000     0.0000     0.0000 nz         1 C8M       0.196600
      2 C1           1.3480     0.0000     0.0000 c          1 C8M       0.312100
      3 C4           2.1010     0.0000     1.3050 c3         1 C8M      -0.101400
      4 C5           3.6050    -0.0010     1.0260 c3         1 C8M       0.165800
      5 N2           4.3400    -0.0010     2.2990 n3         1 C8M      -0.529600
      6 C6           4.1200     1.2520     3.0330 c3         1 C8M       0.162100
      7 C5'          5.7720    -0.2390     2.0790 c3         1 C8M       0.146800
      8 C4'          6.4610    -0.4810     3.4240 c3         1 C8M       0.156100
      9 O4'          5.9900    -1.7100     4.0010 os         1 C8M      -0.393600
     10 C1'          7.1010    -2.2940     4.7140 c3         1 C8M       0.150800
     11 N5           6.8980    -3.7340     4.8970 na         1 C8M       0.218000
     12 C11          7.1310    -4.4470     6.0450 ca         1 C8M       0.283800
     13 N4           7.5720    -4.1480     7.2620 nb         1 C8M      -0.681000
     14 C10          7.6930    -5.0820     8.1810 ca         1 C8M       0.701900
     15 N3           7.3890    -6.3470     7.9500 nb         1 C8M      -0.738000
     16 C9           6.9420    -6.7410     6.7630 ca         1 C8M       0.593200
     17 N7           6.6270    -8.0680     6.5300 nv         1 C8M      -0.475500
     18 C12          6.7960    -5.7790     5.7490 ca         1 C8M      -0.249200
     19 N6           6.3820    -5.8090     4.4590 nc         1 C8M      -0.483100
     20 C7           6.4350    -4.6080     3.9590 cd         1 C8M       0.191800
     21 C2'          8.3100    -2.0290     3.7810 c3         1 C8M       0.122100
     22 O2'          9.5310    -2.0070     4.5220 oh         1 C8M      -0.534800
     23 C3'          7.9810    -0.6250     3.2160 c3         1 C8M       0.129100
     24 O3'          8.6840     0.3840     3.9450 oh         1 C8M      -0.545800
     25 C8           6.0460    -4.2410     2.5500 c3         1 C8M       0.014600
     26 O1           1.9540     0.0010    -1.0500 o          1 C8M      -0.395100
     27 HN1         -0.3340    -0.8940     0.3010 hn         1 C8M       0.248133
     28 HN1A        -0.3340     0.1860    -0.9250 hn         1 C8M       0.248133
     29 H4           1.8390     0.8850     1.8730 hc         1 C8M       0.068700
     30 H4A          1.8390    -0.8840     1.8730 hc         1 C8M       0.068700
     31 H5           3.8670    -0.8850     0.4580 h1         1 C8M       0.029200
     32 H5A          3.8680     0.8840     0.4590 h1         1 C8M       0.029200
     33 H6           5.0710     1.7420     3.2040 h1         1 C8M       0.013367
     34 H6A          3.6500     1.0350     3.9850 h1         1 C8M       0.013367
     35 H6B          3.4780     1.9030     2.4530 h1         1 C8M       0.013367
     36 H5'          6.2120     0.6270     1.5990 h1         1 C8M       0.022700
     37 H5'A         5.9010    -1.1080     1.4460 h1         1 C8M       0.022700
     38 H4'          6.2600     0.3410     4.1000 h1         1 C8M       0.050700
     39 H1'          7.2420    -1.7980     5.6660 h2         1 C8M       0.082700
     40 H10          8.0550    -4.8040     9.1640 h5         1 C8M      -0.000900
     41 HN7          6.3100    -8.3560     5.6250 hn         1 C8M       0.277800
     42 HN7A         6.7200    -8.7410     7.2650 hn         1 C8M       0.277800
     43 H2'          8.3470    -2.7620     2.9840 h1         1 C8M       0.027700
     44 HO2'        10.2280    -2.3540     3.9890 ho         1 C8M       0.394000
     45 H3'          8.2230    -0.5770     2.1620 h1         1 C8M       0.010700
     46 HO3'         9.2410     0.8670     3.3560 ho         1 C8M       0.394000
     47 H8           5.2500    -3.5070     2.5750 hc         1 C8M       0.013367
     48 H8A          5.7060    -5.1260     2.0270 hc         1 C8M       0.013367
     49 H8B          6.9040    -3.8250     2.0350 hc         1 C8M       0.013367
     50 H13         -0.3340     0.7040     0.6280 hn         1 C8M       0.248133
@<TRIPOS>BOND
     1     1     2 1   
     2     1    27 1   
     3     1    28 1   
     4     1    50 1   
     5     2     3 1   
     6     2    26 2   
     7     3     4 1   
     8     3    29 1   
     9     3    30 1   
    10     4     5 1   
    11     4    31 1   
    12     4    32 1   
    13     5     6 1   
    14     5     7 1   
    15     6    33 1   
    16     6    34 1   
    17     6    35 1   
    18     7     8 1   
    19     7    36 1   
    20     7    37 1   
    21     8     9 1   
    22     8    23 1   
    23     8    38 1   
    24     9    10 1   
    25    10    11 1   
    26    10    21 1   
    27    10    39 1   
    28    11    12 1   
    29    11    20 1   
    30    12    13 ar  
    31    12    18 ar  
    32    13    14 ar  
    33    14    15 ar  
    34    14    40 1   
    35    15    16 ar  
    36    16    17 1   
    37    16    18 ar  
    38    17    41 1   
    39    17    42 1   
    40    18    19 1   
    41    19    20 2   
    42    20    25 1   
    43    21    22 1   
    44    21    23 1   
    45    21    43 1   
    46    22    44 1   
    47    23    24 1   
    48    23    45 1   
    49    24    46 1   
    50    25    47 1   
    51    25    48 1   
    52    25    49 1   
@<TRIPOS>SUBSTRUCTURE
     1 C8M         1 TEMP              0 ****  ****    0 ROOT
