@<TRIPOS>MOLECULE
molecule
   47    50     1     0     0
SMALL
bcc


@<TRIPOS>ATOM
      1 O01          0.0000     0.0000     0.0000 o          1 C8N      -0.783800
      2 C02          1.3420     0.0000     0.0000 c          1 C8N       0.884600
      3 O03          1.9460     0.0010    -1.0460 o          1 C8N      -0.783800
      4 C04          2.0950     0.0000     1.3060 c3         1 C8N      -0.049300
      5 C05          1.7430    -1.2700     2.0770 c3         1 C8N       0.067700
      6 S06          3.3390    -2.1060     2.3100 ss         1 C8N      -0.320700
      7 C07          4.3180    -0.8890     1.4750 cc         1 C8N       0.245200
      8 C08          5.6870    -0.8760     1.2620 cd         1 C8N      -0.250000
      9 N09          6.4730    -1.9290     1.7390 nx         1 C8N      -0.465200
     10 C10          7.0360    -2.6730     0.6030 c3         1 C8N       0.087600
     11 C11          7.5660    -1.3900     2.5600 c3         1 C8N       0.087600
     12 C12          6.2820     0.1760     0.5770 cd         1 C8N      -0.029200
     13 C13          7.7700     0.2000     0.3410 c3         1 C8N      -0.004900
     14 C14          8.1150     1.3500    -0.5700 ca         1 C8N      -0.094300
     15 C15          8.3610     1.1290    -1.8900 ca         1 C8N      -0.102000
     16 C16          8.6820     2.1800    -2.7460 ca         1 C8N      -0.126000
     17 C17          8.7590     3.4600    -2.2870 ca         1 C8N      -0.098000
     18 C18          8.5130     3.7270    -0.9300 ca         1 C8N      -0.034000
     19 C19          8.5840     5.0350    -0.4200 ca         1 C8N      -0.104000
     20 C20          8.3390     5.2570     0.9010 ca         1 C8N      -0.123000
     21 C21          8.0180     4.2060     1.7570 ca         1 C8N      -0.110000
     22 C22          7.9400     2.9270     1.2980 ca         1 C8N      -0.131000
     23 C23          8.1800     2.6600    -0.0610 ca         1 C8N      -0.028000
     24 C24          5.4770     1.1990     0.1190 cc         1 C8N      -0.203200
     25 C25          4.1060     1.1530     0.3510 c          1 C8N       0.687700
     26 O26          3.4030     2.0640    -0.0580 o          1 C8N      -0.540500
     27 N27          3.5260     0.1160     1.0260 n          1 C8N      -0.243000
     28 H041         1.7870     0.8570     1.8920 h1         1 C8N       0.104700
     29 H052         1.0880    -1.8920     1.4790 h1         1 C8N       0.112200
     30 H051         1.3230    -1.0090     3.0400 h1         1 C8N       0.112200
     31 H101         8.1150    -2.5730     0.6050 hx         1 C8N       0.093700
     32 H103         6.6370    -2.2760    -0.3220 hx         1 C8N       0.093700
     33 H102         6.7700    -3.7200     0.6910 hx         1 C8N       0.093700
     34 H112         7.7000    -2.0130     3.4360 hx         1 C8N       0.093700
     35 H113         7.3220    -0.3810     2.8680 hx         1 C8N       0.093700
     36 H111         8.4810    -1.3800     1.9810 hx         1 C8N       0.093700
     37 H132         8.0770    -0.7300    -0.1210 hc         1 C8N       0.049200
     38 H131         8.2840     0.3210     1.2870 hc         1 C8N       0.049200
     39 H151         8.3060     0.1200    -2.2810 ha         1 C8N       0.127000
     40 H161         8.8730     1.9760    -3.7920 ha         1 C8N       0.137000
     41 H171         9.0100     4.2670    -2.9650 ha         1 C8N       0.140000
     42 H191         8.8320     5.8620    -1.0740 ha         1 C8N       0.139000
     43 H201         8.3940     6.2660     1.2910 ha         1 C8N       0.135000
     44 H211         7.8270     4.4100     2.8040 ha         1 C8N       0.131000
     45 H221         7.6890     2.1200     1.9760 ha         1 C8N       0.121000
     46 H241         5.9100     2.0340    -0.4190 ha         1 C8N       0.195000
     47 H091         5.9100    -2.5420     2.2930 hn         1 C8N       0.448800
@<TRIPOS>BOND
     1     3     2 1
     2     1     2 1
     3     2     4 1
     4    26    25 2
     5     4     5 1
     6     4    27 1
     7     5     6 1
     8    25    27 1
     9    25    24 1
    10    27     7 1
    11    24    12 2
    12     6     7 1
    13     7     8 2
    14    12     8 1
    15    12    13 1
    16     8     9 1
    17    13    14 1
    18    11     9 1
    19     9    10 1
    20    15    14 ar
    21    15    16 ar
    22    14    23 ar
    23    16    17 ar
    24    23    22 ar
    25    23    18 ar
    26    17    18 ar
    27    22    21 ar
    28    18    19 ar
    29    21    20 ar
    30    19    20 ar
    31     4    28 1
    32     5    29 1
    33     5    30 1
    34    10    31 1
    35    10    32 1
    36    10    33 1
    37    11    34 1
    38    11    35 1
    39    11    36 1
    40    13    37 1
    41    13    38 1
    42    15    39 1
    43    16    40 1
    44    17    41 1
    45    19    42 1
    46    20    43 1
    47    21    44 1
    48    22    45 1
    49    24    46 1
    50     9    47 1
@<TRIPOS>SUBSTRUCTURE
     1 C8N         1 TEMP              0 ****  ****    0 ROOT
