@<TRIPOS>MOLECULE
C8N
   47    50     1     0     0
SMALL
bcc


@<TRIPOS>ATOM
      1 O01          0.0000     0.0000     0.0000 o          1 C8N      -0.830300
      2 C02          1.3420     0.0000     0.0000 c          1 C8N       0.966600
      3 O03          1.9460     0.0010    -1.0460 o          1 C8N      -0.830300
      4 C04          2.0950     0.0000     1.3060 c3         1 C8N      -0.178300
      5 C05          1.7430    -1.2700     2.0770 c3         1 C8N       0.168700
      6 S06          3.3390    -2.1060     2.3100 ss         1 C8N      -0.364700
      7 C07          4.3180    -0.8890     1.4750 cc         1 C8N       0.097200
      8 C08          5.6870    -0.8760     1.2620 cd         1 C8N      -0.467000
      9 N09          6.4730    -1.9290     1.7390 nx         1 C8N       0.310800
     10 C10          7.0360    -2.6730     0.6030 c3         1 C8N      -0.044400
     11 C11          7.5660    -1.3900     2.5600 c3         1 C8N      -0.044400
     12 C12          6.2820     0.1760     0.5770 cd         1 C8N      -0.020200
     13 C13          7.7700     0.2000     0.3410 c3         1 C8N       0.050100
     14 C14          8.1150     1.3500    -0.5700 ca         1 C8N      -0.101300
     15 C15          8.3610     1.1290    -1.8900 ca         1 C8N      -0.074000
     16 C16          8.6820     2.1800    -2.7460 ca         1 C8N      -0.100000
     17 C17          8.7590     3.4600    -2.2870 ca         1 C8N      -0.066000
     18 C18          8.5130     3.7270    -0.9300 ca         1 C8N      -0.034000
     19 C19          8.5840     5.0350    -0.4200 ca         1 C8N      -0.073000
     20 C20          8.3390     5.2570     0.9010 ca         1 C8N      -0.098000
     21 C21          8.0180     4.2060     1.7570 ca         1 C8N      -0.079000
     22 C22          7.9400     2.9270     1.2980 ca         1 C8N      -0.115000
     23 C23          8.1800     2.6600    -0.0610 ca         1 C8N      -0.022000
     24 C24          5.4770     1.1990     0.1190 cc         1 C8N      -0.197200
     25 C25          4.1060     1.1530     0.3510 c          1 C8N       0.582700
     26 O26          3.4030     2.0640    -0.0580 o          1 C8N      -0.568500
     27 N27          3.5260     0.1160     1.0260 n          1 C8N       0.246000
     28 H041         1.7870     0.8570     1.8920 h1         1 C8N       0.081700
     29 H052         1.0880    -1.8920     1.4790 h1         1 C8N       0.081700
     30 H051         1.3230    -1.0090     3.0400 h1         1 C8N       0.081700
     31 H101         8.1150    -2.5730     0.6050 hx         1 C8N       0.073367
     32 H103         6.6370    -2.2760    -0.3220 hx         1 C8N       0.073367
     33 H102         6.7700    -3.7200     0.6910 hx         1 C8N       0.073367
     34 H112         7.7000    -2.0130     3.4360 hx         1 C8N       0.073367
     35 H113         7.3220    -0.3810     2.8680 hx         1 C8N       0.073367
     36 H111         8.4810    -1.3800     1.9810 hx         1 C8N       0.073367
     37 H132         8.0770    -0.7300    -0.1210 hc         1 C8N       0.028200
     38 H131         8.2840     0.3210     1.2870 hc         1 C8N       0.028200
     39 H151         8.3060     0.1200    -2.2810 ha         1 C8N       0.101000
     40 H161         8.8730     1.9760    -3.7920 ha         1 C8N       0.108000
     41 H171         9.0100     4.2670    -2.9650 ha         1 C8N       0.111000
     42 H191         8.8320     5.8620    -1.0740 ha         1 C8N       0.110000
     43 H201         8.3940     6.2660     1.2910 ha         1 C8N       0.106000
     44 H211         7.8270     4.4100     2.8040 ha         1 C8N       0.101000
     45 H221         7.6890     2.1200     1.9760 ha         1 C8N       0.100000
     46 H241         5.9100     2.0340    -0.4190 ha         1 C8N       0.170000
     47 H091         5.9100    -2.5420     2.2930 hn         1 C8N       0.237800
@<TRIPOS>BOND
     1     1     2 1   
     2     2     3 1   
     3     2     4 1   
     4     4     5 1   
     5     4    27 1   
     6     4    28 1   
     7     5     6 1   
     8     5    29 1   
     9     5    30 1   
    10     6     7 1   
    11     7     8 2   
    12     7    27 1   
    13     8     9 1   
    14     8    12 1   
    15     9    10 1   
    16     9    11 1   
    17     9    47 1   
    18    10    31 1   
    19    10    32 1   
    20    10    33 1   
    21    11    34 1   
    22    11    35 1   
    23    11    36 1   
    24    12    13 1   
    25    12    24 2   
    26    13    14 1   
    27    13    37 1   
    28    13    38 1   
    29    14    15 ar  
    30    14    23 ar  
    31    15    16 ar  
    32    15    39 1   
    33    16    17 ar  
    34    16    40 1   
    35    17    18 ar  
    36    17    41 1   
    37    18    19 ar  
    38    18    23 ar  
    39    19    20 ar  
    40    19    42 1   
    41    20    21 ar  
    42    20    43 1   
    43    21    22 ar  
    44    21    44 1   
    45    22    23 ar  
    46    22    45 1   
    47    24    25 1   
    48    24    46 1   
    49    25    26 2   
    50    25    27 1   
@<TRIPOS>SUBSTRUCTURE
     1 C8N         1 TEMP              0 ****  ****    0 ROOT
