@<TRIPOS>MOLECULE
molecule
   42    45     1     0     0
SMALL
bcc


@<TRIPOS>ATOM
      1 C11          0.0000     0.0000     0.0000 cc         1 C8Q      -0.000200
      2 O01          2.5530     1.3840     5.6060 o          1 C8Q      -0.812300
      3 C02          1.9590     1.2030     4.4150 c          1 C8Q       0.891600
      4 O03          1.1860     2.0290     3.9930 o          1 C8Q      -0.812300
      5 C04          2.2820    -0.0180     3.5920 c3         1 C8Q      -0.025300
      6 C05          3.7750    -0.0170     3.2740 c3         1 C8Q       0.019700
      7 S06          3.8440    -0.0080     1.4570 ss         1 C8Q      -0.320700
      8 C07          2.0920     0.0000     1.2000 cd         1 C8Q       0.131200
      9 C08          1.3920     0.0000     0.0000 cc         1 C8Q       0.005100
     10 O09          2.0700    -0.0000    -1.1810 os         1 C8Q      -0.337900
     11 C10          3.4970    -0.0000    -1.1100 c3         1 C8Q       0.108700
     12 C12         -0.7730     0.0000    -1.2940 c3         1 C8Q       0.012100
     13 C13         -0.9220     1.4150    -1.7900 ca         1 C8Q      -0.052300
     14 C14         -0.0210     1.9310    -2.6700 ca         1 C8Q      -0.117000
     15 C15         -0.1430     3.2370    -3.1400 ca         1 C8Q      -0.125000
     16 C16         -1.1660     4.0360    -2.7330 ca         1 C8Q      -0.127000
     17 C17         -2.1170     3.5390    -1.8240 ca         1 C8Q      -0.032000
     18 C18         -3.1910     4.3310    -1.3850 ca         1 C8Q      -0.122000
     19 C19         -4.0980     3.8130    -0.5130 ca         1 C8Q      -0.126000
     20 C20         -3.9780     2.5050    -0.0460 ca         1 C8Q      -0.128000
     21 C21         -2.9510     1.7080    -0.4500 ca         1 C8Q      -0.104000
     22 C22         -1.9960     2.2080    -1.3500 ca         1 C8Q      -0.023000
     23 C23         -0.6560    -0.0060     1.2160 cd         1 C8Q      -0.256200
     24 C24          0.0790    -0.0110     2.3950 c          1 C8Q       0.696700
     25 O25         -0.5140    -0.0170     3.4640 o          1 C8Q      -0.632500
     26 N26          1.4460    -0.0120     2.3920 n          1 C8Q      -0.264000
     27 H041         2.0520    -0.9050     4.1700 h1         1 C8Q       0.079700
     28 H052         4.2310     0.8860     3.6620 h1         1 C8Q       0.088200
     29 H051         4.2310    -0.9230     3.6530 h1         1 C8Q       0.088200
     30 H103         3.8320    -0.8840    -0.5810 h1         1 C8Q       0.048700
     31 H102         3.9080    -0.0020    -2.1130 h1         1 C8Q       0.048700
     32 H101         3.8320     0.8850    -0.5840 h1         1 C8Q       0.048700
     33 H122        -0.2400    -0.5870    -2.0320 hc         1 C8Q       0.055200
     34 H121        -1.7530    -0.4300    -1.1290 hc         1 C8Q       0.055200
     35 H141         0.8030     1.3160    -3.0100 ha         1 C8Q       0.139000
     36 H151         0.5890     3.6230    -3.8400 ha         1 C8Q       0.119000
     37 H161        -1.2480     5.0490    -3.1070 ha         1 C8Q       0.122000
     38 H181        -3.2960     5.3500    -1.7390 ha         1 C8Q       0.123000
     39 H191        -4.9250     4.4260    -0.1760 ha         1 C8Q       0.119000
     40 H201        -4.7140     2.1170     0.6470 ha         1 C8Q       0.126000
     41 H211        -2.8710     0.6930    -0.0790 ha         1 C8Q       0.140000
     42 H231        -1.7330    -0.1150     1.2490 ha         1 C8Q       0.152000
@<TRIPOS>BOND
     1    19    20 ar
     2    19    18 ar
     3    20    21 ar
     4    18    17 ar
     5    21    22 ar
     6    17    22 ar
     7    17    16 ar
     8    22    13 ar
     9    16    15 ar
    10    25    24 2
    11    23    24 1
    12    23     1 2
    13    13    12 1
    14    13    14 ar
    15    24    26 1
    16    15    14 ar
    17    12     1 1
    18     1     9 1
    19    26     5 1
    20    26     8 1
    21     5     3 1
    22     5     6 1
    23     9     8 2
    24     9    10 1
    25     8     7 1
    26     3     4 1
    27     3     2 1
    28     6     7 1
    29    10    11 1
    30     5    27 1
    31     6    28 1
    32     6    29 1
    33    11    30 1
    34    11    31 1
    35    11    32 1
    36    12    33 1
    37    12    34 1
    38    14    35 1
    39    15    36 1
    40    16    37 1
    41    18    38 1
    42    19    39 1
    43    20    40 1
    44    21    41 1
    45    23    42 1
@<TRIPOS>SUBSTRUCTURE
     1 C8Q         1 TEMP              0 ****  ****    0 ROOT
