@<TRIPOS>MOLECULE
C8Q
   42    45     1     0     0
SMALL
bcc


@<TRIPOS>ATOM
      1 C11          0.0000     0.0000     0.0000 cc         1 C8Q      -0.030200
      2 O01          2.5530     1.3840     5.6060 o          1 C8Q      -0.860300
      3 C02          1.9590     1.2030     4.4150 c          1 C8Q       0.976600
      4 O03          1.1860     2.0290     3.9930 o          1 C8Q      -0.860300
      5 C04          2.2820    -0.0180     3.5920 c3         1 C8Q      -0.146300
      6 C05          3.7750    -0.0170     3.2740 c3         1 C8Q       0.106700
      7 S06          3.8440    -0.0080     1.4570 ss         1 C8Q      -0.372700
      8 C07          2.0920     0.0000     1.2000 cd         1 C8Q      -0.041800
      9 C08          1.3920     0.0000     0.0000 cc         1 C8Q       0.045100
     10 O09          2.0700    -0.0000    -1.1810 os         1 C8Q      -0.306900
     11 C10          3.4970    -0.0000    -1.1100 c3         1 C8Q       0.178700
     12 C12         -0.7730     0.0000    -1.2940 c3         1 C8Q       0.084100
     13 C13         -0.9220     1.4150    -1.7900 ca         1 C8Q      -0.056300
     14 C14         -0.0210     1.9310    -2.6700 ca         1 C8Q      -0.099000
     15 C15         -0.1430     3.2370    -3.1400 ca         1 C8Q      -0.099000
     16 C16         -1.1660     4.0360    -2.7330 ca         1 C8Q      -0.102000
     17 C17         -2.1170     3.5390    -1.8240 ca         1 C8Q      -0.031000
     18 C18         -3.1910     4.3310    -1.3850 ca         1 C8Q      -0.096000
     19 C19         -4.0980     3.8130    -0.5130 ca         1 C8Q      -0.101000
     20 C20         -3.9780     2.5050    -0.0460 ca         1 C8Q      -0.100000
     21 C21         -2.9510     1.7080    -0.4500 ca         1 C8Q      -0.088000
     22 C22         -1.9960     2.2080    -1.3500 ca         1 C8Q      -0.020000
     23 C23         -0.6560    -0.0060     1.2160 cd         1 C8Q      -0.233200
     24 C24          0.0790    -0.0110     2.3950 c          1 C8Q       0.591700
     25 O25         -0.5140    -0.0170     3.4640 o          1 C8Q      -0.679500
     26 N26          1.4460    -0.0120     2.3920 n          1 C8Q       0.204000
     27 H041         2.0520    -0.9050     4.1700 h1         1 C8Q       0.058700
     28 H052         4.2310     0.8860     3.6620 h1         1 C8Q       0.063700
     29 H051         4.2310    -0.9230     3.6530 h1         1 C8Q       0.063700
     30 H103         3.8320    -0.8840    -0.5810 h1         1 C8Q       0.019033
     31 H102         3.9080    -0.0020    -2.1130 h1         1 C8Q       0.019033
     32 H101         3.8320     0.8850    -0.5840 h1         1 C8Q       0.019033
     33 H122        -0.2400    -0.5870    -2.0320 hc         1 C8Q       0.023700
     34 H121        -1.7530    -0.4300    -1.1290 hc         1 C8Q       0.023700
     35 H141         0.8030     1.3160    -3.0100 ha         1 C8Q       0.114000
     36 H151         0.5890     3.6230    -3.8400 ha         1 C8Q       0.093000
     37 H161        -1.2480     5.0490    -3.1070 ha         1 C8Q       0.098000
     38 H181        -3.2960     5.3500    -1.7390 ha         1 C8Q       0.098000
     39 H191        -4.9250     4.4260    -0.1760 ha         1 C8Q       0.093000
     40 H201        -4.7140     2.1170     0.6470 ha         1 C8Q       0.099000
     41 H211        -2.8710     0.6930    -0.0790 ha         1 C8Q       0.122000
     42 H231        -1.7330    -0.1150     1.2490 ha         1 C8Q       0.129000
@<TRIPOS>BOND
     1     1     9 1   
     2     1    12 1   
     3     1    23 2   
     4     2     3 1   
     5     3     4 1   
     6     3     5 1   
     7     5     6 1   
     8     5    26 1   
     9     5    27 1   
    10     6     7 1   
    11     6    28 1   
    12     6    29 1   
    13     7     8 1   
    14     8     9 2   
    15     8    26 1   
    16     9    10 1   
    17    10    11 1   
    18    11    30 1   
    19    11    31 1   
    20    11    32 1   
    21    12    13 1   
    22    12    33 1   
    23    12    34 1   
    24    13    14 ar  
    25    13    22 ar  
    26    14    15 ar  
    27    14    35 1   
    28    15    16 ar  
    29    15    36 1   
    30    16    17 ar  
    31    16    37 1   
    32    17    18 ar  
    33    17    22 ar  
    34    18    19 ar  
    35    18    38 1   
    36    19    20 ar  
    37    19    39 1   
    38    20    21 ar  
    39    20    40 1   
    40    21    22 ar  
    41    21    41 1   
    42    23    24 1   
    43    23    42 1   
    44    24    25 2   
    45    24    26 1   
@<TRIPOS>SUBSTRUCTURE
     1 C8Q         1 TEMP              0 ****  ****    0 ROOT
