@<TRIPOS>MOLECULE
molecule
   48    49     1     0     0
SMALL
bcc


@<TRIPOS>ATOM
      1 OAF          0.0000     0.0000     0.0000 o          1 C8V      -0.733533
      2 SAZ          1.4210     0.0000     0.0000 s6         1 C8V       1.561300
      3 OAD          1.8500     0.0000     1.4610 o          1 C8V      -0.733533
      4 OAE          2.1980    -0.9970    -0.6460 o          1 C8V      -0.733533
      5 OAS          1.8500     1.3340    -0.5960 os         1 C8V      -0.446000
      6 NAR          3.2860     1.4340    -0.8570 n7         1 C8V      -0.491700
      7 CAV          3.6270     2.7420    -1.4290 c3         1 C8V       0.135500
      8 CAK          4.8480     2.6000    -2.3420 c3         1 C8V      -0.093400
      9 CB           5.1830     3.9570    -2.9640 c3         1 C8V      -0.085400
     10 CAN          3.9510     3.7260    -0.3000 c3         1 C8V       0.118000
     11 N            4.4140     4.9890    -0.8910 n          1 C8V      -0.499800
     12 CAG          3.8320     6.1580    -0.5570 c          1 C8V       0.659900
     13 OAA          2.8550     6.1650     0.1620 o          1 C8V      -0.600100
     14 CA           5.5250     4.9530    -1.8520 c3         1 C8V       0.060700
     15 C            5.7240     6.3240    -2.4460 c          1 C8V       0.645100
     16 O            4.7660     6.9680    -2.8170 o          1 C8V      -0.610100
     17 NAQ          6.9660     6.8350    -2.5630 ns         1 C8V      -0.431500
     18 NAP          7.1500     8.1080    -3.1150 ns         1 C8V      -0.434500
     19 CAT          8.3920     8.6200    -3.2320 c          1 C8V       0.657100
     20 OAB          9.3490     7.9750    -2.8610 o          1 C8V      -0.616100
     21 CAW          8.5890     9.9900    -3.8270 c3         1 C8V      -0.134700
     22 CAJ         10.0820    10.3310    -3.8410 c3         1 C8V      -0.061400
     23 CAH         10.2700    11.7480    -4.3900 c3         1 C8V      -0.081400
     24 CAI          9.4750    12.7320    -3.5290 c3         1 C8V       0.154800
     25 NAO          8.0530    12.3640    -3.5480 n7         1 C8V      -0.818200
     26 CAM          7.8440    11.0260    -2.9820 c3         1 C8V       0.162800
     27 H1           3.5610     0.7100    -1.4910 hn         1 C8V       0.370800
     28 H2           2.7900     3.1190    -2.0050 h1         1 C8V       0.068700
     29 H3           5.6930     2.2520    -1.7600 hc         1 C8V       0.052700
     30 H4           4.6270     1.8880    -3.1280 hc         1 C8V       0.052700
     31 H5           6.0330     3.8490    -3.6260 hc         1 C8V       0.056700
     32 H6           4.3270     4.3190    -3.5210 hc         1 C8V       0.056700
     33 H7           4.7310     3.3120     0.3280 h1         1 C8V       0.085700
     34 H8           3.0600     3.9070     0.2890 h1         1 C8V       0.085700
     35 H9           4.2690     7.0930    -0.8860 h5         1 C8V       0.033200
     36 H10          6.4300     4.6360    -1.3480 h1         1 C8V       0.054700
     37 H11          7.7560     6.3030    -2.2570 hn         1 C8V       0.365500
     38 H12          6.3620     8.6260    -3.4510 hn         1 C8V       0.363500
     39 H13          8.2060    10.0090    -4.8400 hc         1 C8V       0.083700
     40 H14         10.4740    10.2800    -2.8320 hc         1 C8V       0.058700
     41 H15         10.6070     9.6260    -4.4740 hc         1 C8V       0.058700
     42 H16         11.3210    12.0100    -4.3600 hc         1 C8V       0.050200
     43 H17          9.9100    11.7900    -5.4110 hc         1 C8V       0.050200
     44 H18          9.5930    13.7330    -3.9250 h1         1 C8V       0.032700
     45 H19          9.8420    12.6970    -2.5100 h1         1 C8V       0.032700
     46 H20          7.5280    13.0340    -3.0220 hn         1 C8V       0.358800
     47 H22          6.7860    10.7960    -2.9830 h1         1 C8V       0.040200
     48 H23          8.2230    11.0010    -1.9670 h1         1 C8V       0.040200
@<TRIPOS>BOND
     1     1     2 1
     2     4     2 1
     3     2     5 1
     4     2     3 1
     5     5     6 1
     6     6     7 1
     7     9     8 1
     8     9    14 1
     9     8     7 1
    10    13    12 2
    11     7    10 1
    12    12    11 1
    13    14    11 1
    14    14    15 1
    15    11    10 1
    16    17    15 1
    17    17    18 1
    18    15    16 2
    19    23    24 1
    20    23    22 1
    21    24    25 1
    22    20    19 2
    23    18    19 1
    24    19    21 1
    25    25    26 1
    26    22    21 1
    27    21    26 1
    28     6    27 1
    29     7    28 1
    30     8    29 1
    31     8    30 1
    32     9    31 1
    33     9    32 1
    34    10    33 1
    35    10    34 1
    36    12    35 1
    37    14    36 1
    38    17    37 1
    39    18    38 1
    40    21    39 1
    41    22    40 1
    42    22    41 1
    43    23    42 1
    44    23    43 1
    45    24    44 1
    46    24    45 1
    47    25    46 1
    48    26    47 1
    49    26    48 1
@<TRIPOS>SUBSTRUCTURE
     1 C8V         1 TEMP              0 ****  ****    0 ROOT
