@<TRIPOS>MOLECULE
C8V
   48    49     1     0     0
SMALL
bcc


@<TRIPOS>ATOM
      1 OAF          0.0000     0.0000     0.0000 o          1 C8V      -0.676867
      2 SAZ          1.4210     0.0000     0.0000 s6         1 C8V       1.328300
      3 OAD          1.8500     0.0000     1.4610 o          1 C8V      -0.676867
      4 OAE          2.1980    -0.9970    -0.6460 o          1 C8V      -0.676867
      5 OAS          1.8500     1.3340    -0.5960 os         1 C8V      -0.380000
      6 NAR          3.2860     1.4340    -0.8570 n7         1 C8V      -0.293700
      7 CAV          3.6270     2.7420    -1.4290 c3         1 C8V       0.095500
      8 CAK          4.8480     2.6000    -2.3420 c3         1 C8V      -0.034400
      9 CB           5.1830     3.9570    -2.9640 c3         1 C8V      -0.030400
     10 CAN          3.9510     3.7260    -0.3000 c3         1 C8V       0.053000
     11 N            4.4140     4.9890    -0.8910 n          1 C8V      -0.176800
     12 CAG          3.8320     6.1580    -0.5570 c          1 C8V       0.613900
     13 OAA          2.8550     6.1650     0.1620 o          1 C8V      -0.641100
     14 CA           5.5250     4.9530    -1.8520 c3         1 C8V      -0.018300
     15 C            5.7240     6.3240    -2.4460 c          1 C8V       0.564100
     16 O            4.7660     6.9680    -2.8170 o          1 C8V      -0.646100
     17 NAQ          6.9660     6.8350    -2.5630 ns         1 C8V      -0.144500
     18 NAP          7.1500     8.1080    -3.1150 ns         1 C8V      -0.149500
     19 CAT          8.3920     8.6200    -3.2320 c          1 C8V       0.577100
     20 OAB          9.3490     7.9750    -2.8610 o          1 C8V      -0.655100
     21 CAW          8.5890     9.9900    -3.8270 c3         1 C8V      -0.115700
     22 CAJ         10.0820    10.3310    -3.8410 c3         1 C8V      -0.010400
     23 CAH         10.2700    11.7480    -4.3900 c3         1 C8V      -0.026400
     24 CAI          9.4750    12.7320    -3.5290 c3         1 C8V       0.144800
     25 NAO          8.0530    12.3640    -3.5480 n7         1 C8V      -0.577200
     26 CAM          7.8440    11.0260    -2.9820 c3         1 C8V       0.150800
     27 H1           3.5610     0.7100    -1.4910 hn         1 C8V       0.264800
     28 H2           2.7900     3.1190    -2.0050 h1         1 C8V       0.035700
     29 H3           5.6930     2.2520    -1.7600 hc         1 C8V       0.022200
     30 H4           4.6270     1.8880    -3.1280 hc         1 C8V       0.022200
     31 H5           6.0330     3.8490    -3.6260 hc         1 C8V       0.023700
     32 H6           4.3270     4.3190    -3.5210 hc         1 C8V       0.023700
     33 H7           4.7310     3.3120     0.3280 h1         1 C8V       0.053200
     34 H8           3.0600     3.9070     0.2890 h1         1 C8V       0.053200
     35 H9           4.2690     7.0930    -0.8860 h5         1 C8V      -0.004800
     36 H10          6.4300     4.6360    -1.3480 h1         1 C8V       0.026700
     37 H11          7.7560     6.3030    -2.2570 hn         1 C8V       0.220500
     38 H12          6.3620     8.6260    -3.4510 hn         1 C8V       0.220500
     39 H13          8.2060    10.0090    -4.8400 hc         1 C8V       0.052700
     40 H14         10.4740    10.2800    -2.8320 hc         1 C8V       0.029700
     41 H15         10.6070     9.6260    -4.4740 hc         1 C8V       0.029700
     42 H16         11.3210    12.0100    -4.3600 hc         1 C8V       0.019200
     43 H17          9.9100    11.7900    -5.4110 hc         1 C8V       0.019200
     44 H18          9.5930    13.7330    -3.9250 h1         1 C8V       0.005700
     45 H19          9.8420    12.6970    -2.5100 h1         1 C8V       0.005700
     46 H20          7.5280    13.0340    -3.0220 hn         1 C8V       0.254800
     47 H22          6.7860    10.7960    -2.9830 h1         1 C8V       0.011200
     48 H23          8.2230    11.0010    -1.9670 h1         1 C8V       0.011200
@<TRIPOS>BOND
     1     1     2 1   
     2     2     3 1   
     3     2     4 1   
     4     2     5 1   
     5     5     6 1   
     6     6     7 1   
     7     6    27 1   
     8     7     8 1   
     9     7    10 1   
    10     7    28 1   
    11     8     9 1   
    12     8    29 1   
    13     8    30 1   
    14     9    14 1   
    15     9    31 1   
    16     9    32 1   
    17    10    11 1   
    18    10    33 1   
    19    10    34 1   
    20    11    12 1   
    21    11    14 1   
    22    12    13 2   
    23    12    35 1   
    24    14    15 1   
    25    14    36 1   
    26    15    16 2   
    27    15    17 1   
    28    17    18 1   
    29    17    37 1   
    30    18    19 1   
    31    18    38 1   
    32    19    20 2   
    33    19    21 1   
    34    21    22 1   
    35    21    26 1   
    36    21    39 1   
    37    22    23 1   
    38    22    40 1   
    39    22    41 1   
    40    23    24 1   
    41    23    42 1   
    42    23    43 1   
    43    24    25 1   
    44    24    44 1   
    45    24    45 1   
    46    25    26 1   
    47    25    46 1   
    48    26    47 1   
    49    26    48 1   
@<TRIPOS>SUBSTRUCTURE
     1 C8V         1 TEMP              0 ****  ****    0 ROOT
