@<TRIPOS>MOLECULE
molecule
   50    52     1     0     0
SMALL
bcc


@<TRIPOS>ATOM
      1 C1           0.0000     0.0000     0.0000 c3         1 C8W      -0.203600
      2 N6          -7.7220    -5.4470    -0.9260 nz         1 C8W      -0.811400
      3 C8          -5.9590     1.0990    -2.4620 ca         1 C8W       0.788200
      4 C9          -5.0760     1.1380    -1.3650 ca         1 C8W      -0.192300
      5 C11         -4.3140     2.3200    -1.0860 cg         1 C8W       0.230800
      6 C13         -6.5760    -1.0970    -1.9860 ca         1 C8W       0.641600
      7 C14         -5.7330    -1.1460    -0.8690 ca         1 C8W      -0.334100
      8 C15         -5.7820    -2.4310    -0.1970 cd         1 C8W       0.390800
      9 C19         -3.7330     0.0020     2.9990 ca         1 C8W      -0.214000
     10 C20         -4.5770     0.0020     1.9100 ca         1 C8W      -0.139000
     11 C21         -4.0510     0.0020     0.6170 cp         1 C8W      -0.116000
     12 C22         -2.6660     0.0010     0.4310 ca         1 C8W      -0.189000
     13 C27          1.5300     0.0000     0.0000 c3         1 C8W      -0.332400
     14 O2          -0.4760     0.0000     1.3480 os         1 C8W      -0.179900
     15 S3          -7.4260    -2.6290    -2.1670 ss         1 C8W      -0.196900
     16 C4          -6.6240    -3.3260    -0.7730 cc         1 C8W      -0.330600
     17 C5          -6.8450    -4.6410    -0.2970 c          1 C8W       0.561300
     18 N7          -6.0890     2.2100    -3.2760 nv         1 C8W      -0.974500
     19 N10         -6.6570     0.0140    -2.7260 nb         1 C8W      -0.764000
     20 N12         -3.7090     3.2500    -0.8450 n1         1 C8W      -0.318800
     21 N16         -5.0340    -2.7180     0.9350 nv         1 C8W      -0.814600
     22 C17         -1.8250     0.0010     1.5260 ca         1 C8W       0.053100
     23 C18         -2.3580     0.0010     2.8140 ca         1 C8W       0.140100
     24 C23         -4.9560     0.0030    -0.5510 cp         1 C8W       0.178000
     25 O24         -1.5280     0.0060     3.8910 os         1 C8W      -0.295900
     26 C25         -2.1410     0.0120     5.1810 c3         1 C8W       0.125700
     27 O26         -6.2400    -5.0420     0.6820 o          1 C8W      -0.566100
     28 C28          2.0390    -0.0000    -1.4430 c3         1 C8W      -0.234400
     29 C29          3.5470    -0.0000    -1.4420 c          1 C8W       0.918600
     30 O30          4.2170    -0.0000    -2.6050 o          1 C8W      -0.816300
     31 O31          4.1510    -0.0010    -0.3960 o          1 C8W      -0.816300
     32 H1          -0.3610     0.7810     0.6580 h1         1 C8W       0.171700
     33 H2          -0.3610     0.1800    -1.0050 h1         1 C8W       0.171700
     34 H3          -7.9820    -6.1970    -0.3160 hn         1 C8W       0.517467
     35 H4          -8.5370    -4.9230    -1.1770 hn         1 C8W       0.517467
     36 H5          -4.1420     0.0450     4.0020 ha         1 C8W       0.145000
     37 H6          -5.6510     0.0190     2.0570 ha         1 C8W       0.129000
     38 H7          -2.1350    -0.1210    -0.5050 ha         1 C8W       0.167000
     39 H8           1.8910     0.7810    -0.6580 hc         1 C8W       0.171200
     40 H9           1.8910     0.1800     1.0050 hc         1 C8W       0.171200
     41 H10         -6.8840     2.2980    -3.8780 hn         1 C8W       0.460800
     42 H11         -5.3650     2.9000    -3.2990 hn         1 C8W       0.460800
     43 H12         -5.2870    -3.4890     1.5200 hn         1 C8W       0.475800
     44 H13         -4.2380    -2.1560     1.1650 hn         1 C8W       0.475800
     45 H14         -2.5900     0.9810     5.3630 h1         1 C8W       0.043033
     46 H15         -1.3920    -0.1870     5.9380 h1         1 C8W       0.043033
     47 H16         -2.9070    -0.7540     5.2210 h1         1 C8W       0.043033
     48 H17          2.3830    -0.9940    -1.7040 hc         1 C8W       0.066200
     49 H18          1.2370     0.2910    -2.1090 hc         1 C8W       0.066200
     50 H63         -7.4440    -6.4010    -0.8050 hn         1 C8W       0.517467
@<TRIPOS>BOND
     1     2    17 1
     2    27    17 2
     3    17    16 1
     4    16    15 1
     5    16     8 2
     6    15     6 1
     7     8    21 1
     8     8     7 1
     9     6     7 ar
    10     6    19 ar
    11     7    24 ar
    12    19     3 ar
    13    24    11 1
    14    24     4 ar
    15     3     4 ar
    16     3    18 1
    17    31    29 1
    18    10    11 ar
    19    10     9 ar
    20    11    12 ar
    21     4     5 1
    22     9    23 ar
    23    12    22 ar
    24    23    22 ar
    25    23    25 1
    26    22    14 1
    27    29    30 1
    28    29    28 1
    29     5    20 3
    30    26    25 1
    31    14     1 1
    32     1    13 1
    33    28    13 1
    34     1    32 1
    35     1    33 1
    36     2    34 1
    37     2    35 1
    38     9    36 1
    39    10    37 1
    40    12    38 1
    41    13    39 1
    42    13    40 1
    43    18    41 1
    44    18    42 1
    45    21    43 1
    46    21    44 1
    47    26    45 1
    48    26    46 1
    49    26    47 1
    50    28    48 1
    51    28    49 1
    52    50     2 1
@<TRIPOS>SUBSTRUCTURE
     1 C8W         1 TEMP              0 ****  ****    0 ROOT
