@<TRIPOS>MOLECULE
molecule
   26    26     1     0     0
SMALL
bcc


@<TRIPOS>ATOM
      1 OAE          0.0000     0.0000     0.0000 o          1 C8Y      -0.730867
      2 SAP          1.4200     0.0000     0.0000 s6         1 C8Y       1.558300
      3 OAC          2.1980     0.0000     1.1900 o          1 C8Y      -0.730867
      4 OAD          1.8490    -1.2260    -0.7940 o          1 C8Y      -0.730867
      5 OAL          1.8510     1.2240    -0.7950 os         1 C8Y      -0.460000
      6 NAK          1.0170     1.4980    -1.9650 n7         1 C8Y      -0.477700
      7 CAN          1.4890     2.6890    -2.6820 c3         1 C8Y       0.141500
      8 CAI          2.9290     2.4680    -3.1480 c3         1 C8Y      -0.115400
      9 CAH          3.4110     3.6950    -3.9240 c3         1 C8Y      -0.091400
     10 CAM          3.3840     4.9190    -3.0020 c3         1 C8Y       0.180800
     11 CAF          3.7220     6.1260    -3.7750 c1         1 C8Y       0.211700
     12 NAA          4.0010     7.0530    -4.3690 n1         1 C8Y      -0.378800
     13 NAO          2.0360     5.0550    -2.4340 n          1 C8Y      -0.502800
     14 CAG          1.3590     6.2140    -2.5440 c          1 C8Y       0.654900
     15 OAB          0.2130     6.2870    -2.1530 o          1 C8Y      -0.606100
     16 CAJ          1.4400     3.9010    -1.7460 c3         1 C8Y       0.113000
     17 H1           1.0360     0.7080    -2.5800 hn         1 C8Y       0.369800
     18 H2           0.8570     2.8730    -3.5420 h1         1 C8Y       0.069700
     19 H3           2.9690     1.5970    -3.7920 hc         1 C8Y       0.067700
     20 H4           3.5670     2.3150    -2.2850 hc         1 C8Y       0.067700
     21 H5           2.7570     3.8670    -4.7700 hc         1 C8Y       0.051200
     22 H6           4.4240     3.5280    -4.2710 hc         1 C8Y       0.051200
     23 H7           4.1010     4.7830    -2.2010 h1         1 C8Y       0.085700
     24 H8           1.8460     7.0890    -2.9570 h5         1 C8Y       0.023200
     25 H9           2.0020     3.6870    -0.8450 h1         1 C8Y       0.090700
     26 H10          0.4100     4.1230    -1.4930 h1         1 C8Y       0.090700
@<TRIPOS>BOND
     1    12    11 3
     2    11    10 1
     3    16    13 1
     4    16     7 1
     5    13    10 1
     6    13    14 1
     7    10     9 1
     8    14    15 2
     9     7     8 1
    10     7     6 1
    11     8     9 1
    12     6     5 1
    13     3     2 1
    14     5     2 1
    15     2     1 1
    16     2     4 1
    17     6    17 1
    18     7    18 1
    19     8    19 1
    20     8    20 1
    21     9    21 1
    22     9    22 1
    23    10    23 1
    24    14    24 1
    25    16    25 1
    26    16    26 1
@<TRIPOS>SUBSTRUCTURE
     1 C8Y         1 TEMP              0 ****  ****    0 ROOT
