@<TRIPOS>MOLECULE
C8Z
   37    40     1     0     0
SMALL
bcc


@<TRIPOS>ATOM
      1 C1           0.0000     0.0000     0.0000 ca         1 C8Z       0.237800
      2 C2           1.4050     0.0000     0.0000 ca         1 C8Z      -0.200100
      3 C3           1.8150     0.0000     1.4050 cc         1 C8Z      -0.130200
      4 C7           5.4330    -0.7370    -2.4090 c3         1 C8Z      -0.028400
      5 C8           5.2740     0.7710    -2.7100 c3         1 C8Z      -0.032400
      6 C9           3.9940     1.1960    -1.9660 c3         1 C8Z       0.173800
      7 C10          4.3180     2.2810    -0.9690 ca         1 C8Z      -0.086300
      8 C11          4.0300     3.6000    -1.2660 ca         1 C8Z      -0.086500
      9 C12          4.3270     4.5940    -0.3530 ca         1 C8Z      -0.106000
     10 C13          4.9090     4.2690     0.8590 ca         1 C8Z      -0.103000
     11 C14          5.1950     2.9500     1.1550 ca         1 C8Z      -0.106000
     12 C15          4.8950     1.9550     0.2430 ca         1 C8Z      -0.086500
     13 C16          1.3440     0.0000    -2.3940 ca         1 C8Z      -0.301300
     14 N1          -0.4030     0.0000     1.3130 na         1 C8Z       0.255900
     15 C5           2.0950    -0.0000    -1.2220 ca         1 C8Z       0.105600
     16 C4           0.6910    -0.0010     2.1390 cd         1 C8Z      -0.274100
     17 N2           3.4850     0.0000    -1.2610 nh         1 C8Z      -0.394000
     18 C6           3.9960    -1.1670    -2.0230 c3         1 C8Z       0.141800
     19 C17         -0.0360    -0.0030    -2.3130 ca         1 C8Z       0.427200
     20 N3          -0.6610    -0.0050    -1.1530 nb         1 C8Z      -0.586000
     21 H1           2.8310    -0.0000     1.7810 ha         1 C8Z       0.137000
     22 H2           6.1140    -0.8910    -1.5800 hc         1 C8Z       0.022200
     23 H3           5.7660    -1.2690    -3.2920 hc         1 C8Z       0.022200
     24 H4           5.1580     0.9300    -3.7750 hc         1 C8Z       0.023700
     25 H5           6.1280     1.3200    -2.3320 hc         1 C8Z       0.023700
     26 H6           3.2560     1.5480    -2.6760 h1         1 C8Z       0.030700
     27 H7           3.5740     3.8540    -2.2160 ha         1 C8Z       0.111000
     28 H8           4.1020     5.6280    -0.5860 ha         1 C8Z       0.100500
     29 H9           5.1420     5.0490     1.5740 ha         1 C8Z       0.100000
     30 H10          5.6490     2.6940     2.1050 ha         1 C8Z       0.100500
     31 H11          5.1190     0.9210     0.4760 ha         1 C8Z       0.111000
     32 H12          1.8360     0.0020    -3.3590 ha         1 C8Z       0.122000
     33 H13         -1.3550    -0.0000     1.6210 hn         1 C8Z       0.118700
     34 H14          0.6530    -0.0020     3.2220 h4         1 C8Z       0.141000
     35 H15          3.3970    -1.3350    -2.9100 h1         1 C8Z       0.020700
     36 H16          4.0190    -2.0500    -1.3960 h1         1 C8Z       0.020700
     37 H17         -0.6190    -0.0030    -3.2260 h4         1 C8Z      -0.023900
@<TRIPOS>BOND
     1     1     2 ar  
     2     1    14 1   
     3     1    20 ar  
     4     2     3 1   
     5     2    15 ar  
     6     3    16 2   
     7     3    21 1   
     8     4     5 1   
     9     4    18 1   
    10     4    22 1   
    11     4    23 1   
    12     5     6 1   
    13     5    24 1   
    14     5    25 1   
    15     6     7 1   
    16     6    17 1   
    17     6    26 1   
    18     7     8 ar  
    19     7    12 ar  
    20     8     9 ar  
    21     8    27 1   
    22     9    10 ar  
    23     9    28 1   
    24    10    11 ar  
    25    10    29 1   
    26    11    12 ar  
    27    11    30 1   
    28    12    31 1   
    29    13    15 ar  
    30    13    19 ar  
    31    13    32 1   
    32    14    16 1   
    33    14    33 1   
    34    15    17 1   
    35    16    34 1   
    36    17    18 1   
    37    18    35 1   
    38    18    36 1   
    39    19    20 ar  
    40    19    37 1   
@<TRIPOS>SUBSTRUCTURE
     1 C8Z         1 TEMP              0 ****  ****    0 ROOT
