@<TRIPOS>MOLECULE
molecule
   37    40     1     0     0
SMALL
bcc


@<TRIPOS>ATOM
      1 C1           0.0000     0.0000     0.0000 ca         1 C8Z       0.471800
      2 C2           1.4050     0.0000     0.0000 ca         1 C8Z      -0.196100
      3 C3           1.8150     0.0000     1.4050 cc         1 C8Z      -0.168200
      4 C7           5.4330    -0.7370    -2.4090 c3         1 C8Z      -0.087400
      5 C8           5.2740     0.7710    -2.7100 c3         1 C8Z      -0.086400
      6 C9           3.9940     1.1960    -1.9660 c3         1 C8Z       0.206800
      7 C10          4.3180     2.2810    -0.9690 ca         1 C8Z      -0.075300
      8 C11          4.0300     3.6000    -1.2660 ca         1 C8Z      -0.110000
      9 C12          4.3270     4.5940    -0.3530 ca         1 C8Z      -0.133500
     10 C13          4.9090     4.2690     0.8590 ca         1 C8Z      -0.128000
     11 C14          5.1950     2.9500     1.1550 ca         1 C8Z      -0.133500
     12 C15          4.8950     1.9550     0.2430 ca         1 C8Z      -0.110000
     13 C16          1.3440     0.0000    -2.3940 ca         1 C8Z      -0.331300
     14 N1          -0.4030     0.0000     1.3130 na         1 C8Z      -0.283100
     15 C5           2.0950    -0.0000    -1.2220 ca         1 C8Z       0.166600
     16 C4           0.6910    -0.0010     2.1390 cd         1 C8Z      -0.107100
     17 N2           3.4850     0.0000    -1.2610 nh         1 C8Z      -0.592000
     18 C6           3.9960    -1.1670    -2.0230 c3         1 C8Z       0.150800
     19 C17         -0.0360    -0.0030    -2.3130 ca         1 C8Z       0.456200
     20 N3          -0.6610    -0.0050    -1.1530 nb         1 C8Z      -0.721000
     21 H1           2.8310    -0.0000     1.7810 ha         1 C8Z       0.163000
     22 H2           6.1140    -0.8910    -1.5800 hc         1 C8Z       0.053700
     23 H3           5.7660    -1.2690    -3.2920 hc         1 C8Z       0.053700
     24 H4           5.1580     0.9300    -3.7750 hc         1 C8Z       0.053700
     25 H5           6.1280     1.3200    -2.3320 hc         1 C8Z       0.053700
     26 H6           3.2560     1.5480    -2.6760 h1         1 C8Z       0.049700
     27 H7           3.5740     3.8540    -2.2160 ha         1 C8Z       0.135500
     28 H8           4.1020     5.6280    -0.5860 ha         1 C8Z       0.127000
     29 H9           5.1420     5.0490     1.5740 ha         1 C8Z       0.126000
     30 H10          5.6490     2.6940     2.1050 ha         1 C8Z       0.127000
     31 H11          5.1190     0.9210     0.4760 ha         1 C8Z       0.135500
     32 H12          1.8360     0.0020    -3.3590 ha         1 C8Z       0.138000
     33 H13         -1.3550    -0.0000     1.6210 hn         1 C8Z       0.303700
     34 H14          0.6530    -0.0020     3.2220 h4         1 C8Z       0.169000
     35 H15          3.3970    -1.3350    -2.9100 h1         1 C8Z       0.049700
     36 H16          4.0190    -2.0500    -1.3960 h1         1 C8Z       0.049700
     37 H17         -0.6190    -0.0030    -3.2260 h4         1 C8Z       0.022100
@<TRIPOS>BOND
     1     4    18 1
     2     4     5 1
     3    18    17 1
     4     5     6 1
     5    13    19 ar
     6    13    15 ar
     7    17     6 1
     8    17    15 1
     9    19    20 ar
    10     6     7 1
    11    15     2 ar
    12    20     1 ar
    13     2     1 ar
    14     2     3 1
    15     7     8 ar
    16     7    12 ar
    17     1    14 1
    18     8     9 ar
    19    12    11 ar
    20     3    16 2
    21    14    16 1
    22     9    10 ar
    23    11    10 ar
    24     3    21 1
    25     4    22 1
    26     4    23 1
    27     5    24 1
    28     5    25 1
    29     6    26 1
    30     8    27 1
    31     9    28 1
    32    10    29 1
    33    11    30 1
    34    12    31 1
    35    13    32 1
    36    14    33 1
    37    16    34 1
    38    18    35 1
    39    18    36 1
    40    19    37 1
@<TRIPOS>SUBSTRUCTURE
     1 C8Z         1 TEMP              0 ****  ****    0 ROOT
