@<TRIPOS>MOLECULE
C90
   59    61     1     0     0
SMALL
bcc


@<TRIPOS>ATOM
      1 C5           0.0000     0.0000     0.0000 c3         1 C90       0.212100
      2 C6           1.5080     0.0000     0.0000 ca         1 C90      -0.090300
      3 C9           4.2770    -0.0010     0.0010 ca         1 C90       0.053000
      4 C10          5.7090    -0.0010     0.0010 cg         1 C90      -0.111000
      5 O1          -2.0270     3.5440     0.9280 os         1 C90      -0.416600
      6 C11          6.8820    -0.0130    -0.0150 ch         1 C90      -0.134000
      7 C12          8.4890    -0.1030    -0.1330 ca         1 C90       0.077000
      8 C19         15.2760     1.6150     1.4780 c3         1 C90       0.240100
      9 C15         11.1460    -0.1790     0.4330 ca         1 C90      -0.081600
     10 C16         12.8040    -0.1490     0.2750 c          1 C90       0.660700
     11 C18         15.0790     0.1700     1.7930 c3         1 C90      -0.113300
     12 C21         14.7710     2.3920     0.3930 c3         1 C90      -0.015100
     13 C22         15.3460    -0.4210     3.3820 c          1 C90       0.634100
     14 CA1         -0.6220     3.5190     1.1910 c3         1 C90       0.215900
     15 CA2         -2.3970     2.8910    -0.2900 c3         1 C90       0.215900
     16 CB1         -0.1470     2.0640     1.2580 c3         1 C90       0.104300
     17 CB2         -1.9400     1.4310    -0.2380 c3         1 C90       0.104300
     18 N4          -0.4890     1.3850     0.0000 n3         1 C90      -0.528600
     19 CC1          2.1960     0.0000     1.2010 ca         1 C90      -0.091000
     20 CC2          2.1960    -0.0060    -1.2000 ca         1 C90      -0.091000
     21 CD1          3.5740    -0.0000     1.2090 ca         1 C90      -0.087000
     22 CD2          3.5750    -0.0060    -1.2080 ca         1 C90      -0.087000
     23 CE1          9.2270     0.0150     1.4820 ca         1 C90      -0.078000
     24 CE2          9.2170     0.2990    -1.0930 ca         1 C90      -0.078000
     25 CF1         10.4390    -0.0560     1.3530 ca         1 C90      -0.080500
     26 CF          10.5840    -0.2800    -0.9090 ca         1 C90      -0.080500
     27 O16         13.6340    -0.4920    -0.5910 o          1 C90      -0.554100
     28 N17         13.5320     0.2350     1.8440 ns         1 C90      -0.428900
     29 N23         16.6810    -0.5250     3.4180 ns         1 C90      -0.031400
     30 O22         14.3340    -0.8860     3.9410 o          1 C90      -0.553100
     31 O24         17.0770    -0.9230     5.0550 oh         1 C90      -0.500100
     32 H51         -0.3610    -0.4020     0.9390 h1         1 C90       0.012700
     33 H52         -0.3610    -0.6120    -0.8180 h1         1 C90       0.012700
     34 H19         16.3510     1.7530     1.4500 h1         1 C90      -0.042300
     35 H18         15.4340    -0.4950     1.0160 h1         1 C90       0.069700
     36 H211        15.3310     3.3160     0.3190 hc         1 C90       0.021367
     37 H212        14.8730     1.8330    -0.5300 hc         1 C90       0.021367
     38 H213        13.7260     2.6160     0.5650 hc         1 C90       0.021367
     39 HA11        -0.4430     3.9280     2.1780 h1         1 C90       0.010950
     40 HA12        -0.1170     4.1320     0.4540 h1         1 C90       0.010950
     41 HA21        -3.4770     2.8540    -0.3530 h1         1 C90       0.010950
     42 HA22        -2.0090     3.4620    -1.1250 h1         1 C90       0.010950
     43 HB11         0.9330     2.0520     1.3400 h1         1 C90       0.020700
     44 HB12        -0.5780     1.5950     2.1340 h1         1 C90       0.020700
     45 HB21        -2.1170     0.9740    -1.2040 h1         1 C90       0.020700
     46 HB22        -2.5180     0.9100     0.5160 h1         1 C90       0.020700
     47 HC1          1.6510    -0.0090     2.1370 ha         1 C90       0.108500
     48 HC2          1.6510    -0.0200    -2.1370 ha         1 C90       0.108500
     49 HD1          4.1120    -0.0430     2.1480 ha         1 C90       0.109500
     50 HD2          4.1140    -0.0530    -2.1470 ha         1 C90       0.109500
     51 HE1          8.6900    -0.1850     2.4010 ha         1 C90       0.128000
     52 HE2          8.7730     0.6220    -2.0270 ha         1 C90       0.128000
     53 HF1         10.9850     0.2550     2.2350 ha         1 C90       0.113000
     54 HF          11.2250    -0.2630    -1.7820 ha         1 C90       0.113000
     55 HN17        13.0490     0.0040     2.6900 hn         1 C90       0.224500
     56 HN23        17.2470     0.1250     2.9100 hn         1 C90       0.192500
     57 HO24        17.9550    -1.2640     5.0910 ho         1 C90       0.389000
     58 O20         14.7370     2.4720     2.7370 oh         1 C90      -0.629800
     59 HO20        15.3030     3.2130     2.8790 ho         1 C90       0.374000
@<TRIPOS>BOND
     1     1     2 1   
     2     1    18 1   
     3     1    32 1   
     4     1    33 1   
     5     2    19 ar  
     6     2    20 ar  
     7     3     4 1   
     8     3    21 ar  
     9     3    22 ar  
    10     4     6 3   
    11     5    14 1   
    12     5    15 1   
    13     6     7 1   
    14     7    23 ar  
    15     7    24 ar  
    16     8    11 1   
    17     8    12 1   
    18     8    34 1   
    19     8    58 1   
    20     9    10 1   
    21     9    25 ar  
    22     9    26 ar  
    23    10    27 2   
    24    10    28 1   
    25    11    13 1   
    26    11    28 1   
    27    11    35 1   
    28    12    36 1   
    29    12    37 1   
    30    12    38 1   
    31    13    29 1   
    32    13    30 2   
    33    14    16 1   
    34    14    39 1   
    35    14    40 1   
    36    15    17 1   
    37    15    41 1   
    38    15    42 1   
    39    16    18 1   
    40    16    43 1   
    41    16    44 1   
    42    17    18 1   
    43    17    45 1   
    44    17    46 1   
    45    19    21 ar  
    46    19    47 1   
    47    20    22 ar  
    48    20    48 1   
    49    21    49 1   
    50    22    50 1   
    51    23    25 ar  
    52    23    51 1   
    53    24    26 ar  
    54    24    52 1   
    55    25    53 1   
    56    26    54 1   
    57    28    55 1   
    58    29    31 1   
    59    29    56 1   
    60    31    57 1   
    61    58    59 1   
@<TRIPOS>SUBSTRUCTURE
     1 C90         1 TEMP              0 ****  ****    0 ROOT
