@<TRIPOS>MOLECULE
molecule
   59    61     1     0     0
SMALL
bcc


@<TRIPOS>ATOM
      1 C5           0.0000     0.0000     0.0000 c3         1 C90       0.206100
      2 C6           1.5080     0.0000     0.0000 ca         1 C90      -0.074300
      3 C9           4.2770    -0.0010     0.0010 ca         1 C90       0.026000
      4 C10          5.7090    -0.0010     0.0010 cg         1 C90      -0.105000
      5 O1          -2.0270     3.5440     0.9280 os         1 C90      -0.429600
      6 C11          6.8820    -0.0130    -0.0150 ch         1 C90      -0.130000
      7 C12          8.4890    -0.1030    -0.1330 ca         1 C90       0.046000
      8 C19         15.2760     1.6150     1.4780 c3         1 C90       0.198100
      9 C15         11.1460    -0.1790     0.4330 ca         1 C90      -0.060600
     10 C16         12.8040    -0.1490     0.2750 c          1 C90       0.642700
     11 C18         15.0790     0.1700     1.7930 c3         1 C90      -0.043300
     12 C21         14.7710     2.3920     0.3930 c3         1 C90      -0.093100
     13 C22         15.3460    -0.4210     3.3820 c          1 C90       0.677100
     14 CA1         -0.6220     3.5190     1.1910 c3         1 C90       0.140400
     15 CA2         -2.3970     2.8910    -0.2900 c3         1 C90       0.140400
     16 CB1         -0.1470     2.0640     1.2580 c3         1 C90       0.120800
     17 CB2         -1.9400     1.4310    -0.2380 c3         1 C90       0.120800
     18 N4          -0.4890     1.3850     0.0000 n3         1 C90      -0.716600
     19 CC1          2.1960     0.0000     1.2010 ca         1 C90      -0.119500
     20 CC2          2.1960    -0.0060    -1.2000 ca         1 C90      -0.119500
     21 CD1          3.5740    -0.0000     1.2090 ca         1 C90      -0.106000
     22 CD2          3.5750    -0.0060    -1.2080 ca         1 C90      -0.106000
     23 CE1          9.2270     0.0150     1.4820 ca         1 C90      -0.098500
     24 CE2          9.2170     0.2990    -1.0930 ca         1 C90      -0.098500
     25 CF1         10.4390    -0.0560     1.3530 ca         1 C90      -0.099500
     26 CF          10.5840    -0.2800    -0.9090 ca         1 C90      -0.099500
     27 O16         13.6340    -0.4920    -0.5910 o          1 C90      -0.524100
     28 N17         13.5320     0.2350     1.8440 ns         1 C90      -0.640900
     29 N23         16.6810    -0.5250     3.4180 ns         1 C90      -0.344400
     30 O22         14.3340    -0.8860     3.9410 o          1 C90      -0.520100
     31 O24         17.0770    -0.9230     5.0550 oh         1 C90      -0.444100
     32 H51         -0.3610    -0.4020     0.9390 h1         1 C90       0.042200
     33 H52         -0.3610    -0.6120    -0.8180 h1         1 C90       0.042200
     34 H19         16.3510     1.7530     1.4500 h1         1 C90      -0.012300
     35 H18         15.4340    -0.4950     1.0160 h1         1 C90       0.099700
     36 H211        15.3310     3.3160     0.3190 hc         1 C90       0.052700
     37 H212        14.8730     1.8330    -0.5300 hc         1 C90       0.052700
     38 H213        13.7260     2.6160     0.5650 hc         1 C90       0.052700
     39 HA11        -0.4430     3.9280     2.1780 h1         1 C90       0.051700
     40 HA12        -0.1170     4.1320     0.4540 h1         1 C90       0.051700
     41 HA21        -3.4770     2.8540    -0.3530 h1         1 C90       0.051700
     42 HA22        -2.0090     3.4620    -1.1250 h1         1 C90       0.051700
     43 HB11         0.9330     2.0520     1.3400 h1         1 C90       0.045200
     44 HB12        -0.5780     1.5950     2.1340 h1         1 C90       0.045200
     45 HB21        -2.1170     0.9740    -1.2040 h1         1 C90       0.045200
     46 HB22        -2.5180     0.9100     0.5160 h1         1 C90       0.045200
     47 HC1          1.6510    -0.0090     2.1370 ha         1 C90       0.135500
     48 HC2          1.6510    -0.0200    -2.1370 ha         1 C90       0.135500
     49 HD1          4.1120    -0.0430     2.1480 ha         1 C90       0.138000
     50 HD2          4.1140    -0.0530    -2.1470 ha         1 C90       0.138000
     51 HE1          8.6900    -0.1850     2.4010 ha         1 C90       0.163000
     52 HE2          8.7730     0.6220    -2.0270 ha         1 C90       0.163000
     53 HF1         10.9850     0.2550     2.2350 ha         1 C90       0.146000
     54 HF          11.2250    -0.2630    -1.7820 ha         1 C90       0.146000
     55 HN17        13.0490     0.0040     2.6900 hn         1 C90       0.312500
     56 HN23        17.2470     0.1250     2.9100 hn         1 C90       0.329500
     57 HO24        17.9550    -1.2640     5.0910 ho         1 C90       0.393000
     58 O20         14.7370     2.4720     2.7370 oh         1 C90      -0.643800
     59 HO20        15.3030     3.2130     2.8790 ho         1 C90       0.378000
@<TRIPOS>BOND
     1    17    15 1
     2    17    18 1
     3    20    22 ar
     4    20     2 ar
     5    15     5 1
     6     1    18 1
     7     1     2 1
     8    22     3 ar
     9    18    16 1
    10     2    19 ar
    11     5    14 1
    12     3     4 1
    13     3    21 ar
    14    16    14 1
    15    30    13 2
    16    19    21 ar
    17     4     6 3
    18    23    25 ar
    19    23     7 ar
    20     6     7 1
    21    12     8 1
    22    25     9 ar
    23     7    24 ar
    24    31    29 1
    25    13    29 1
    26    13    11 1
    27    28    11 1
    28    28    10 1
    29     9    10 1
    30     9    26 ar
    31    24    26 ar
    32    11     8 1
    33     8    58 1
    34    10    27 2
    35     1    32 1
    36     1    33 1
    37     8    34 1
    38    11    35 1
    39    12    36 1
    40    12    37 1
    41    12    38 1
    42    14    39 1
    43    14    40 1
    44    15    41 1
    45    15    42 1
    46    16    43 1
    47    16    44 1
    48    17    45 1
    49    17    46 1
    50    19    47 1
    51    20    48 1
    52    21    49 1
    53    22    50 1
    54    23    51 1
    55    24    52 1
    56    25    53 1
    57    26    54 1
    58    28    55 1
    59    58    59 1
    60    29    56 1
    61    31    57 1
@<TRIPOS>SUBSTRUCTURE
     1 C90         1 TEMP              0 ****  ****    0 ROOT
