@<TRIPOS>MOLECULE
molecule
   47    51     1     0     0
SMALL
bcc


@<TRIPOS>ATOM
      1 O            0.0000     0.0000     0.0000 o          1 C91      -0.569100
      2 C13          1.2130     0.0000     0.0000 c          1 C91       0.644100
      3 N4           1.8870     0.0000     1.1680 ns         1 C91      -0.479100
      4 C4           1.1910     0.0970     2.3770 ca         1 C91       0.064600
      5 C2          -0.0620    -0.5140     2.5060 ca         1 C91      -0.123000
      6 C5          -0.7610    -0.4350     3.6690 ca         1 C91      -0.102000
      7 C18         -0.2240     0.2670     4.7630 ca         1 C91      -0.048000
      8 C25         -0.9270     0.3680     5.9760 ca         1 C91      -0.109000
      9 C26         -0.3820     1.0590     7.0140 ca         1 C91      -0.132000
     10 C27          0.8640     1.6700     6.8940 ca         1 C91      -0.121000
     11 C28          1.5730     1.5930     5.7350 ca         1 C91      -0.122000
     12 C16          1.0430     0.8880     4.6410 ca         1 C91      -0.017000
     13 C12          1.7480     0.7880     3.4300 ca         1 C91      -0.162000
     14 C17          1.9660    -0.0070    -1.3050 c3         1 C91      -0.024700
     15 N1           1.0150    -0.0140    -2.4180 na         1 C91      -0.118300
     16 C6           0.4820    -1.1180    -3.0260 cc         1 C91       0.375800
     17 C37          0.7810    -2.5200    -2.6570 ca         1 C91       0.428000
     18 C38          0.1730    -3.5630    -3.3540 ca         1 C91      -0.199300
     19 C39          0.4640    -4.8690    -2.9960 ca         1 C91      -0.094000
     20 C40          1.3520    -5.0880    -1.9550 ca         1 C91      -0.246300
     21 C41          1.9200    -4.0060    -1.3070 ca         1 C91       0.421200
     22 N42          1.6310    -2.7740    -1.6690 nb         1 C91      -0.716000
     23 N3          -0.3320    -0.7480    -3.9830 nd         1 C91      -0.591100
     24 C11         -0.3730     0.6040    -4.0490 ca         1 C91       0.095400
     25 C10          0.4830     1.0950    -3.0460 ca         1 C91      -0.075200
     26 C1           0.6350     2.4640    -2.8780 ca         1 C91      -0.124000
     27 C3          -0.0580     3.3340    -3.6940 ca         1 C91      -0.110000
     28 C14         -0.9050     2.8500    -4.6810 ca         1 C91      -0.146000
     29 C9          -1.0630     1.5070    -4.8670 ca         1 C91      -0.068000
     30 H1           2.8860    -0.0630     1.1690 hn         1 C91       0.321500
     31 H2          -0.4800    -1.0570     1.6670 ha         1 C91       0.167000
     32 H3          -1.7290    -0.9140     3.7530 ha         1 C91       0.138000
     33 H4          -1.8970    -0.1020     6.0840 ha         1 C91       0.133000
     34 H5          -0.9260     1.1350     7.9480 ha         1 C91       0.128000
     35 H6           1.2750     2.2140     7.7360 ha         1 C91       0.127000
     36 H7           2.5410     2.0730     5.6560 ha         1 C91       0.130000
     37 H8           2.7720     1.1350     3.3690 ha         1 C91       0.130000
     38 H9           2.5900    -0.8920    -1.3580 h1         1 C91       0.093700
     39 H10          2.5890     0.8770    -1.3680 h1         1 C91       0.093700
     40 H11         -0.5170    -3.3550    -4.1630 ha         1 C91       0.169000
     41 H12          0.0070    -5.7010    -3.5190 ha         1 C91       0.145000
     42 H13          1.5990    -6.0980    -1.6500 ha         1 C91       0.141000
     43 H14          2.6160    -4.1740    -0.4940 h4         1 C91       0.023100
     44 H15          1.2940     2.8480    -2.1090 ha         1 C91       0.125000
     45 H16          0.0560     4.4020    -3.5590 ha         1 C91       0.132000
     46 H17         -1.4430     3.5460    -5.3140 ha         1 C91       0.132000
     47 H18         -1.7260     1.1400    -5.6410 ha         1 C91       0.141000
@<TRIPOS>BOND
     1     9    10 ar
     2     9     8 ar
     3    10    11 ar
     4     8     7 ar
     5    11    12 ar
     6     7    12 ar
     7     7     6 ar
     8    12    13 ar
     9     6     5 ar
    10    13     4 ar
    11     5     4 ar
    12     4     3 1
    13     1     2 2
    14     3     2 1
    15     2    14 1
    16    20    19 ar
    17    20    21 ar
    18    19    18 ar
    19    21    22 ar
    20    18    17 ar
    21    22    17 ar
    22    17    16 1
    23    14    15 1
    24    16    15 1
    25    16    23 2
    26    15    25 1
    27    23    24 1
    28    25    24 ar
    29    25    26 ar
    30    24    29 ar
    31    26    27 ar
    32    29    28 ar
    33    27    28 ar
    34     3    30 1
    35     5    31 1
    36     6    32 1
    37     8    33 1
    38     9    34 1
    39    10    35 1
    40    11    36 1
    41    13    37 1
    42    14    38 1
    43    14    39 1
    44    18    40 1
    45    19    41 1
    46    20    42 1
    47    21    43 1
    48    26    44 1
    49    27    45 1
    50    28    46 1
    51    29    47 1
@<TRIPOS>SUBSTRUCTURE
     1 C91         1 TEMP              0 ****  ****    0 ROOT
