@<TRIPOS>MOLECULE
C92
   53    55     1     0     0
SMALL
bcc


@<TRIPOS>ATOM
      1 C23          0.0000     0.0000     0.0000 c3         1 C92      -0.026900
      2 C24          1.5420     0.0000     0.0000 c3         1 C92      -0.023900
      3 C25          1.9220     0.0000     1.5010 c3         1 C92      -0.023900
      4 C26          0.8510    -0.9290     2.1250 c3         1 C92      -0.026900
      5 C12         -0.4400    -0.5910     1.3520 c3         1 C92      -0.044700
      6 C13         -1.2630    -1.8600     1.1260 c3         1 C92      -0.038400
      7 C11         -1.7970    -2.3670     2.4670 c3         1 C92       0.045000
      8 N10         -2.5860    -3.5820     2.2510 ns         1 C92      -0.199900
      9 C8          -3.1590    -4.2100     3.2970 c          1 C92       0.598700
     10 O9          -3.0210    -3.7660     4.4200 o          1 C92      -0.655100
     11 C4          -3.9550    -5.4360     3.0800 ca         1 C92      -0.174600
     12 C3          -4.5520    -6.0820     4.1590 ca         1 C92      -0.012000
     13 C5          -4.1130    -5.9470     1.7890 ca         1 C92      -0.057000
     14 C6          -4.8570    -7.0930     1.5830 ca         1 C92      -0.127000
     15 C7          -5.4470    -7.7410     2.6500 ca         1 C92       0.011700
     16 C14         -6.2560    -8.9900     2.4160 c3         1 C92       0.044200
     17 C2          -5.3000    -7.2370     3.9450 ca         1 C92      -0.180600
     18 C1          -5.9380    -7.9300     5.0860 c          1 C92       0.585700
     19 O15         -6.4960    -8.9960     4.9140 o          1 C92      -0.650100
     20 N16         -5.9000    -7.3780     6.3150 ns         1 C92      -0.015100
     21 C17         -6.4150    -8.0790     7.4130 ca         1 C92      -0.280700
     22 C22         -6.3430    -9.4710     7.4590 ca         1 C92      -0.015000
     23 C21         -6.8650   -10.1200     8.5620 ca         1 C92      -0.287300
     24 C20         -7.4400    -9.3700     9.5830 ca         1 C92       0.499200
     25 N27         -7.9680   -10.0150    10.6980 nv         1 C92      -0.534500
     26 N19         -7.4910    -8.0500     9.5050 nb         1 C92      -0.640000
     27 C18         -6.9980    -7.3970     8.4690 ca         1 C92       0.431200
     28 H23         -0.3700     1.0140    -0.0980 hc         1 C92       0.017200
     29 H23A        -0.3700    -0.6160    -0.8110 hc         1 C92       0.017200
     30 H24          1.9190    -0.8920    -0.4850 hc         1 C92       0.015200
     31 H24A         1.9190     0.8920    -0.4850 hc         1 C92       0.015200
     32 H25          1.8480     0.9990     1.9140 hc         1 C92       0.015200
     33 H25A         2.9140    -0.4110     1.6440 hc         1 C92       0.015200
     34 H26          0.7290    -0.7090     3.1790 hc         1 C92       0.017200
     35 H26A         1.1200    -1.9670     1.9760 hc         1 C92       0.017200
     36 H12         -1.0200     0.1400     1.9020 hc         1 C92       0.031700
     37 H13         -0.6370    -2.6210     0.6750 hc         1 C92       0.018700
     38 H13A        -2.0940    -1.6400     0.4660 hc         1 C92       0.018700
     39 H11         -0.9660    -2.5880     3.1260 h1         1 C92       0.030700
     40 H11A        -2.4230    -1.6060     2.9170 h1         1 C92       0.030700
     41 HN10        -2.7080    -3.9420     1.3240 hn         1 C92       0.179500
     42 H3          -4.4350    -5.6880     5.1620 ha         1 C92       0.125000
     43 H5          -3.6520    -5.4430     0.9480 ha         1 C92       0.100000
     44 H6          -4.9760    -7.4850     0.5800 ha         1 C92       0.114000
     45 H14         -6.2980    -9.2000     1.3540 hc         1 C92       0.024700
     46 H14A        -5.7910    -9.8230     2.9300 hc         1 C92       0.024700
     47 H14B        -7.2600    -8.8460     2.7960 hc         1 C92       0.024700
     48 HN16        -5.5310    -6.4560     6.4390 hn         1 C92       0.175500
     49 H22         -5.8900   -10.0300     6.6490 ha         1 C92       0.140000
     50 H21         -6.8270   -11.2010     8.6310 ha         1 C92       0.117000
     51 HN27        -7.9330   -11.0130    10.7620 hn         1 C92       0.269300
     52 HN2A        -8.3830    -9.4810    11.4360 hn         1 C92       0.269300
     53 H18         -7.0580    -6.3160     8.4410 h4         1 C92      -0.022900
@<TRIPOS>BOND
     1     1     2 1   
     2     1     5 1   
     3     1    28 1   
     4     1    29 1   
     5     2     3 1   
     6     2    30 1   
     7     2    31 1   
     8     3     4 1   
     9     3    32 1   
    10     3    33 1   
    11     4     5 1   
    12     4    34 1   
    13     4    35 1   
    14     5     6 1   
    15     5    36 1   
    16     6     7 1   
    17     6    37 1   
    18     6    38 1   
    19     7     8 1   
    20     7    39 1   
    21     7    40 1   
    22     8     9 1   
    23     8    41 1   
    24     9    10 2   
    25     9    11 1   
    26    11    12 ar  
    27    11    13 ar  
    28    12    17 ar  
    29    12    42 1   
    30    13    14 ar  
    31    13    43 1   
    32    14    15 ar  
    33    14    44 1   
    34    15    16 1   
    35    15    17 ar  
    36    16    45 1   
    37    16    46 1   
    38    16    47 1   
    39    17    18 1   
    40    18    19 2   
    41    18    20 1   
    42    20    21 1   
    43    20    48 1   
    44    21    22 ar  
    45    21    27 ar  
    46    22    23 ar  
    47    22    49 1   
    48    23    24 ar  
    49    23    50 1   
    50    24    25 1   
    51    24    26 ar  
    52    25    51 1   
    53    25    52 1   
    54    26    27 ar  
    55    27    53 1   
@<TRIPOS>SUBSTRUCTURE
     1 C92         1 TEMP              0 ****  ****    0 ROOT
