@<TRIPOS>MOLECULE
C93
   32    33     1     0     0
SMALL
bcc


@<TRIPOS>ATOM
      1 O12          0.0000     0.0000     0.0000 o          1 C93      -0.878300
      2 C10          1.2150     0.0000     0.0000 c          1 C93       0.962200
      3 O11          1.8890     0.0000     1.1670 o          1 C93      -0.878300
      4 C1           1.9540    -0.0040    -1.2800 ca         1 C93      -0.086600
      5 C6           3.3440    -0.0100    -1.2840 ca         1 C93      -0.090000
      6 C5           4.0380    -0.0140    -2.4830 ca         1 C93      -0.181000
      7 C4           3.3590    -0.0150    -3.6850 ca         1 C93      -0.186000
      8 C3           1.9670    -0.0090    -3.7070 ca         1 C93      -0.053400
      9 C2           1.2530    -0.0100    -2.5030 ca         1 C93       0.004400
     10 C7          -0.2210    -0.0100    -2.5130 c          1 C93       1.030200
     11 O9          -0.8290     1.0420    -2.5220 o          1 C93      -0.906300
     12 O8          -0.8950    -1.1770    -2.5140 o          1 C93      -0.906300
     13 N13          1.2910    -0.0080    -4.9180 nh         1 C93      -0.327000
     14 C18          1.6270    -1.1970    -5.7110 c3         1 C93       0.149300
     15 C17          0.7570    -1.2370    -6.9690 c3         1 C93      -0.046400
     16 C16          0.9990     0.0320    -7.7920 c3         1 C93       0.184100
     17 O19          0.1480     0.0270    -8.9390 oh         1 C93      -0.593800
     18 C15          0.6870     1.2570    -6.9280 c3         1 C93      -0.046400
     19 C14          1.5590     1.2250    -5.6710 c3         1 C93       0.149300
     20 H2           3.8870    -0.0090    -0.3470 ha         1 C93       0.112000
     21 H3           5.1210    -0.0180    -2.4780 ha         1 C93       0.062000
     22 H4           3.9130    -0.0160    -4.6160 ha         1 C93       0.069000
     23 H6           1.4450    -2.0870    -5.1200 h1         1 C93       0.007700
     24 H7           2.6710    -1.1550    -5.9970 h1         1 C93       0.007700
     25 H8          -0.2870    -1.2890    -6.6840 hc         1 C93       0.021450
     26 H9           1.0190    -2.1060    -7.5610 hc         1 C93       0.021450
     27 H10          2.0360     0.0660    -8.1050 h1         1 C93      -0.021300
     28 H11          0.6740     0.0540    -9.7210 ho         1 C93       0.363000
     29 H12         -0.3580     1.2390    -6.6420 hc         1 C93       0.021450
     30 H13          0.8990     2.1580    -7.4910 hc         1 C93       0.021450
     31 H14          1.3270     2.0830    -5.0510 h1         1 C93       0.007700
     32 H15          2.6030     1.2510    -5.9580 h1         1 C93       0.007700
@<TRIPOS>BOND
     1     1     2 1   
     2     2     3 1   
     3     2     4 1   
     4     4     5 ar  
     5     4     9 ar  
     6     5     6 ar  
     7     5    20 1   
     8     6     7 ar  
     9     6    21 1   
    10     7     8 ar  
    11     7    22 1   
    12     8     9 ar  
    13     8    13 1   
    14     9    10 1   
    15    10    11 1   
    16    10    12 1   
    17    13    14 1   
    18    13    19 1   
    19    14    15 1   
    20    14    23 1   
    21    14    24 1   
    22    15    16 1   
    23    15    25 1   
    24    15    26 1   
    25    16    17 1   
    26    16    18 1   
    27    16    27 1   
    28    17    28 1   
    29    18    19 1   
    30    18    29 1   
    31    18    30 1   
    32    19    31 1   
    33    19    32 1   
@<TRIPOS>SUBSTRUCTURE
     1 C93         1 TEMP              0 ****  ****    0 ROOT
