@<TRIPOS>MOLECULE
C94
   38    40     1     0     0
SMALL
bcc


@<TRIPOS>ATOM
      1 O4          0.0880    0.1560    0.3370 o         1 C94     -0.562800
      2 S2          1.4590    0.1860    0.1620 sy        1 C94      1.481200
      3 O3          2.3160   -0.1930    1.1690 o         1 C94     -0.562800
      4 N6          1.6700   -1.2930   -1.0290 n4        1 C94     -0.787500
      5 C16         1.9770    1.3510   -0.8160 ca        1 C94     -0.545500
      6 C15         3.3220    1.7210   -1.0880 ca        1 C94     -0.011300
      7 C24         4.5200    0.9050   -0.5520 c3        1 C94      0.672200
      8 F26         5.7100    1.1830   -1.1680 f         1 C94     -0.215633
      9 F27         4.7590    1.0700    0.7830 f         1 C94     -0.215633
     10 F25         4.3660   -0.4540   -0.7320 f         1 C94     -0.215633
     11 C14         3.6290    2.8340   -1.8440 ca        1 C94     -0.117000
     12 C13         2.6070    3.6500   -2.3950 ca        1 C94      0.052500
     13 C18         1.2660    3.2830   -2.1620 ca        1 C94     -0.154000
     14 C17         0.9740    2.1710   -1.3990 ca        1 C94      0.013000
     15 C4          2.9230    4.8040   -3.1600 cc        1 C94      0.197200
     16 O2          4.2890    5.0950   -3.3610 os        1 C94     -0.348800
     17 C3          2.1430    5.7810   -3.7910 cd        1 C94     -0.126300
     18 C2          3.0390    6.7060   -4.4010 cd        1 C94     -0.253300
     19 C1          4.3380    6.2620   -4.1210 cc        1 C94      0.384500
     20 C6          5.6000    6.8180   -4.4910 ce        1 C94     -0.186800
     21 C7          6.8300    6.3470   -4.1980 cd        1 C94     -0.082600
     22 S1          7.3070    4.9860   -3.3260 ss        1 C94     -0.022800
     23 C9          9.0550    5.2990   -3.5430 cc        1 C94      0.493800
     24 N3          9.9050    4.4900   -3.0320 n2        1 C94     -0.764100
     25 N2          9.2180    6.4810   -4.3040 n         1 C94     -0.539400
     26 C8          8.0320    7.1050   -4.6960 c         1 C94      0.700700
     27 O1          7.9970    8.1440   -5.3640 o         1 C94     -0.555500
     28 H6N1        1.9850   -1.0040   -1.9510 hn        1 C94      0.458800
     29 H6N2        2.3730   -1.9340   -0.6570 hn        1 C94      0.458800
     30 H17        -0.0920    1.9210   -1.2160 ha        1 C94      0.178000
     31 H14         4.6840    3.1130   -2.0350 ha        1 C94      0.198000
     32 H18         0.4500    3.8930   -2.5850 ha        1 C94      0.175000
     33 H3          1.0540    5.8330   -3.8140 ha        1 C94      0.179000
     34 H2          2.7670    7.5920   -4.9740 ha        1 C94      0.193000
     35 H6          5.5210    7.7510   -5.0910 ha        1 C94      0.191000
     36 H3N1       10.1060    6.8540   -4.5450 hn        1 C94      0.358500
     37 H3N2       10.8790    4.6690   -3.1540 hn        1 C94      0.425400
     38 H63         0.7980   -1.8070   -1.1370 hn        1 C94      0.458800
@<TRIPOS>BOND
     1    1    2 2   
     2    2    3 2   
     3    2    4 1   
     4    2    5 1   
     5    4   28 1   
     6    4   29 1   
     7    4   38 1   
     8    5    6 ar  
     9    5   14 ar  
    10    6    7 1   
    11    6   11 ar  
    12    7    8 1   
    13    7    9 1   
    14    7   10 1   
    15   11   12 ar  
    16   11   31 1   
    17   12   13 ar  
    18   12   15 1   
    19   13   14 ar  
    20   13   32 1   
    21   14   30 1   
    22   15   16 1   
    23   15   17 2   
    24   16   19 1   
    25   17   18 1   
    26   17   33 1   
    27   18   19 2   
    28   18   34 1   
    29   19   20 1   
    30   20   21 2   
    31   20   35 1   
    32   21   22 1   
    33   21   26 1   
    34   22   23 1   
    35   23   24 2   
    36   23   25 1   
    37   24   37 1   
    38   25   26 1   
    39   25   36 1   
    40   26   27 2   
@<TRIPOS>SUBSTRUCTURE
     1 C94         1 TEMP              0 ****  ****    0 ROOT
