@<TRIPOS>MOLECULE
C95
   31    33     1     0     0
SMALL
bcc


@<TRIPOS>ATOM
      1 O4         -0.0970    0.0020   -0.0130 o         1 C95     -0.820300
      2 O3          1.8160    0.0040    1.1460 o         1 C95     -0.820300
      3 C16         1.9540    0.0090   -1.2380 ca        1 C95     -0.086600
      4 C15         1.2950    0.0100   -2.4720 ca        1 C95     -0.122000
      5 C14         2.0160    0.0140   -3.6610 ca        1 C95     -0.112000
      6 C13         3.4210    0.0170   -3.6340 ca        1 C95     -0.211500
      7 C18         4.0850    0.0160   -2.3930 ca        1 C95     -0.112000
      8 C17         3.3540    0.0120   -1.2120 ca        1 C95     -0.122000
      9 C4          4.1940    0.0210   -4.8460 cc        1 C95      0.418200
     10 O2          3.5080    0.0200   -6.0610 os        1 C95     -0.347800
     11 C3          5.5730    0.0260   -5.0830 cd        1 C95     -0.318300
     12 C2          5.7530    0.0280   -6.4990 cd        1 C95     -0.177300
     13 C1          4.4830    0.0250   -7.0770 cc        1 C95      0.200500
     14 C6          4.0970    0.0250   -8.4420 ce        1 C95     -0.069800
     15 C7          2.8550    0.0210   -8.9710 cd        1 C95     -0.181600
     16 S1          1.3380    0.0150   -8.1960 ss        1 C95     -0.003800
     17 C9          0.4270    0.0130   -9.7150 cc        1 C95      0.478800
     18 N3         -0.8590    0.0090   -9.7120 n2        1 C95     -0.798100
     19 N2          1.3340    0.0180  -10.8070 n         1 C95     -0.553400
     20 C19         1.1620    0.0050    0.0660 c         1 C95      0.905200
     21 C8          2.6880    0.0220  -10.4500 c         1 C95      0.713700
     22 O1          3.5900    0.0260  -11.3020 o         1 C95     -0.618500
     23 H15         0.1920    0.0080   -2.4730 ha        1 C95      0.160500
     24 H17         3.8550    0.0110   -0.2290 ha        1 C95      0.160500
     25 H14         1.4940    0.0150   -4.6300 ha        1 C95      0.119500
     26 H18         5.1840    0.0180   -2.3640 ha        1 C95      0.119500
     27 HA          6.3580    0.0280   -4.3330 ha        1 C95      0.164000
     28 H2          6.7040    0.0320   -7.0270 ha        1 C95      0.153000
     29 H6          4.9570    0.0290   -9.1470 ha        1 C95      0.157000
     30 H3N1        1.0440    0.0180  -11.7530 hn        1 C95      0.332500
     31 H3N2       -1.3250    0.0080  -10.5940 hn        1 C95      0.391400
@<TRIPOS>BOND
     1    1   20 1
     2    2   20 1
     3    3    4 ar
     4    3    8 ar
     5    3   20 1
     6    4    5 ar
     7    4   23 1
     8    5    6 ar
     9    5   25 1
    10    6    7 ar
    11    6    9 1
    12    7    8 ar
    13    7   26 1
    14    8   24 1
    15    9   10 1
    16    9   11 2
    17   10   13 1
    18   11   12 1
    19   11   27 1
    20   12   13 2
    21   12   28 1
    22   13   14 1
    23   14   15 2
    24   14   29 1
    25   15   16 1
    26   15   21 1
    27   16   17 1
    28   17   18 2
    29   17   19 1
    30   18   31 1
    31   19   21 1
    32   19   30 1
    33   21   22 2
@<TRIPOS>SUBSTRUCTURE
     1 C95         1 TEMP              0 ****  ****    0 ROOT
