@<TRIPOS>MOLECULE
C96
   38    40     1     0     0
SMALL
bcc


@<TRIPOS>ATOM
      1 O4          0.0900    0.0840   -0.0510 o         1 C96     -0.573800
      2 S2          1.2020    0.8240    0.2910 sy        1 C96      1.505200
      3 O3          1.4780    1.1430    1.6040 o         1 C96     -0.573800
      4 N6          2.5680   -0.5380    0.0220 n4        1 C96     -0.782500
      5 C16         1.7120    1.8500   -0.7970 ca        1 C96     -0.604500
      6 C15         2.6420    2.8710   -0.4700 ca        1 C96      0.023000
      7 C14         3.0410    3.8100   -1.3970 ca        1 C96     -0.158500
      8 C13         2.5180    3.7860   -2.7110 ca        1 C96      0.052500
      9 C18         1.5850    2.7810   -3.0530 ca        1 C96     -0.158500
     10 C17         1.1960    1.8450   -2.1180 ca        1 C96      0.023000
     11 C4          2.9180    4.7580   -3.6740 cc        1 C96      0.209200
     12 O2          3.8770    5.7020   -3.2600 os        1 C96     -0.351800
     13 C3          2.5590    5.0160   -4.9990 cd        1 C96     -0.141300
     14 C2          3.3120    6.1530   -5.4260 cd        1 C96     -0.245300
     15 C1          4.1070    6.5500   -4.3450 cc        1 C96      0.364500
     16 C6          5.0650    7.6140   -4.1680 ce        1 C96     -0.087000
     17 C7          5.7640    7.7810   -3.0150 cd        1 C96     -0.107600
     18 S1          5.6780    6.8390   -1.6040 ss        1 C96     -0.050800
     19 C9          6.9030    7.7960   -0.7300 cc        1 C96      0.495800
     20 N3          7.2270    7.4670    0.4650 n2        1 C96     -0.780100
     21 N2          7.3490    8.8420   -1.5710 n         1 C96     -0.541400
     22 C8          6.7590    8.8860   -2.8390 c         1 C96      0.707700
     23 C20         5.2520    8.5290   -5.3230 c3        1 C96     -0.071900
     24 O1          7.0580    9.7490   -3.6730 o         1 C96     -0.564500
     25 H6N1        3.2320   -0.2760   -0.6980 hn        1 C96      0.450133
     26 H6N2        2.1370   -1.4180   -0.2500 hn        1 C96      0.450133
     27 H17         0.4490    1.0770   -2.3950 ha        1 C96      0.166500
     28 H15         3.0390    2.9220    0.5620 ha        1 C96      0.166500
     29 H18         1.1610    2.7560   -4.0710 ha        1 C96      0.179000
     30 H14         3.7650    4.6000   -1.1200 ha        1 C96      0.179000
     31 H3          1.8400    4.4650   -5.6040 ha        1 C96      0.178000
     32 H2          3.2650    6.6140   -6.4120 ha        1 C96      0.190000
     33 H201        6.3230    8.5080   -5.6560 hc        1 C96      0.075033
     34 H202        5.0240    9.5830   -5.0130 hc        1 C96      0.075033
     35 H203        4.6000    8.2580   -6.1860 hc        1 C96      0.075033
     36 H3N1        8.0280    9.5110   -1.2930 hn        1 C96      0.355500
     37 H3N2        7.9120    8.0110    0.9450 hn        1 C96      0.420400
     38 H63         3.0810   -0.6950    0.8860 hn        1 C96      0.450133
@<TRIPOS>BOND
     1    1    2 2   
     2    2    3 2   
     3    2    4 1   
     4    2    5 1   
     5    4   25 1   
     6    4   26 1   
     7    4   38 1   
     8    5    6 ar  
     9    5   10 ar  
    10    6    7 ar  
    11    6   28 1   
    12    7    8 ar  
    13    7   30 1   
    14    8    9 ar  
    15    8   11 1   
    16    9   10 ar  
    17    9   29 1   
    18   10   27 1   
    19   11   12 1   
    20   11   13 2   
    21   12   15 1   
    22   13   14 1   
    23   13   31 1   
    24   14   15 2   
    25   14   32 1   
    26   15   16 1   
    27   16   17 2   
    28   16   23 1   
    29   17   18 1   
    30   17   22 1   
    31   18   19 1   
    32   19   20 2   
    33   19   21 1   
    34   20   37 1   
    35   21   22 1   
    36   21   36 1   
    37   22   24 2   
    38   23   33 1   
    39   23   34 1   
    40   23   35 1   
@<TRIPOS>SUBSTRUCTURE
     1 C96         1 TEMP              0 ****  ****    0 ROOT
