@<TRIPOS>MOLECULE
C98
   59    61     1     0     0
SMALL
bcc


@<TRIPOS>ATOM
      1 Cl           0.0000     0.0000     0.0000 cl         1 C98      -0.023400
      2 C17          1.7350     0.0000     0.0000 ca         1 C98      -0.026600
      3 C16          2.4350     0.0000     1.2060 cp         1 C98      -0.030000
      4 C19          1.6980     0.0010     2.4940 cp         1 C98      -0.037000
      5 C24          2.0230    -0.9230     3.4860 ca         1 C98      -0.089000
      6 C23          1.3350    -0.9180     4.6820 ca         1 C98      -0.102000
      7 C22          0.3230     0.0010     4.8970 ca         1 C98      -0.101000
      8 C21         -0.0030     0.9190     3.9160 ca         1 C98      -0.102000
      9 C20          0.6820     0.9280     2.7180 ca         1 C98      -0.089000
     10 C15          3.8280    -0.0010     1.1980 ca         1 C98      -0.086000
     11 C14          4.5090    -0.0010    -0.0040 ca         1 C98      -0.076000
     12 C18          2.4270    -0.0070    -1.1960 ca         1 C98      -0.095000
     13 C13          3.8110    -0.0010    -1.1980 ca         1 C98      -0.082300
     14 C12          4.5590    -0.0080    -2.5050 c3         1 C98       0.202100
     15 N2           4.7980     1.3740    -2.9410 n7         1 C98      -0.586200
     16 C11          5.5280     1.4070    -4.2150 c3         1 C98       0.147800
     17 C10          5.7560     2.8610    -4.6340 c3         1 C98      -0.043400
     18 C9           6.5170     2.8950    -5.9610 c3         1 C98       0.058000
     19 N1           6.7350     4.2860    -6.3640 ns         1 C98      -0.232900
     20 C8           7.3890     4.5620    -7.5090 c          1 C98       0.561100
     21 O3           7.7970     3.6580    -8.2070 o          1 C98      -0.560100
     22 C7           7.6150     5.9940    -7.9220 c3         1 C98      -0.172400
     23 C6           8.3640     6.0270    -9.2300 c          1 C98       0.532100
     24 O2           8.6830     4.9900    -9.7730 o          1 C98      -0.548100
     25 N            8.6780     7.2090    -9.7960 ns         1 C98      -0.038100
     26 C5           9.4560     7.2430   -10.9590 ca         1 C98      -0.142400
     27 C4          10.3710     8.2710   -11.1540 ca         1 C98      -0.161000
     28 C3          11.1420     8.3100   -12.3010 ca         1 C98      -0.133000
     29 C2          11.0090     7.3270   -13.2590 ca         1 C98      -0.073000
     30 C25          9.3200     6.2470   -11.9130 ca         1 C98      -0.072000
     31 C1          10.0940     6.2890   -13.0730 ca         1 C98      -0.088600
     32 C            9.9540     5.2310   -14.0960 c          1 C98       0.972200
     33 O1          10.7020     5.2740   -15.2160 o          1 C98      -0.882300
     34 O            9.1640     4.3240   -13.9270 o          1 C98      -0.882300
     35 H1           2.8150    -1.6430     3.3190 ha         1 C98       0.112000
     36 H2           1.5870    -1.6350     5.4530 ha         1 C98       0.101500
     37 H3          -0.2160    -0.0000     5.8370 ha         1 C98       0.100000
     38 H4          -0.7940     1.6380     4.0900 ha         1 C98       0.101500
     39 H5           0.4250     1.6480     1.9510 ha         1 C98       0.112000
     40 H6           4.3760    -0.0010     2.1320 ha         1 C98       0.112000
     41 H7           5.5920     0.0000    -0.0120 ha         1 C98       0.113000
     42 H8           1.8860    -0.0070    -2.1340 ha         1 C98       0.116000
     43 H9           5.5080    -0.5140    -2.3750 h1         1 C98       0.012200
     44 H10          3.9730    -0.5270    -3.2540 h1         1 C98       0.012200
     45 H11          3.9220     1.8470    -3.0450 hn         1 C98       0.254800
     46 H13          4.9480     0.8990    -4.9760 h1         1 C98       0.011700
     47 H14          6.4830     0.9110    -4.0970 h1         1 C98       0.011700
     48 H15          6.3360     3.3690    -3.8730 hc         1 C98       0.019200
     49 H16          4.8010     3.3570    -4.7530 hc         1 C98       0.019200
     50 H17          7.4730     2.3990    -5.8420 h1         1 C98       0.026200
     51 H18          5.9380     2.3850    -6.7220 h1         1 C98       0.026200
     52 H19          6.4000     5.0320    -5.7870 hn         1 C98       0.165500
     53 H20          6.6590     6.4900    -8.0410 hc         1 C98       0.029700
     54 H21          8.1940     6.5030    -7.1610 hc         1 C98       0.029700
     55 H22          8.3250     8.0600    -9.4060 hn         1 C98       0.143500
     56 H23         10.4790     9.0460   -10.4040 ha         1 C98       0.080000
     57 H24         11.8520     9.1140   -12.4470 ha         1 C98       0.082000
     58 H25         11.6130     7.3620   -14.1580 ha         1 C98       0.128000
     59 H26          8.6080     5.4440   -11.7630 ha         1 C98       0.162000
@<TRIPOS>BOND
     1     1     2 1   
     2     2     3 ar  
     3     2    12 ar  
     4     3     4 1   
     5     3    10 ar  
     6     4     5 ar  
     7     4     9 ar  
     8     5     6 ar  
     9     5    35 1   
    10     6     7 ar  
    11     6    36 1   
    12     7     8 ar  
    13     7    37 1   
    14     8     9 ar  
    15     8    38 1   
    16     9    39 1   
    17    10    11 ar  
    18    10    40 1   
    19    11    13 ar  
    20    11    41 1   
    21    12    13 ar  
    22    12    42 1   
    23    13    14 1   
    24    14    15 1   
    25    14    43 1   
    26    14    44 1   
    27    15    16 1   
    28    15    45 1   
    29    16    17 1   
    30    16    46 1   
    31    16    47 1   
    32    17    18 1   
    33    17    48 1   
    34    17    49 1   
    35    18    19 1   
    36    18    50 1   
    37    18    51 1   
    38    19    20 1   
    39    19    52 1   
    40    20    21 2   
    41    20    22 1   
    42    22    23 1   
    43    22    53 1   
    44    22    54 1   
    45    23    24 2   
    46    23    25 1   
    47    25    26 1   
    48    25    55 1   
    49    26    27 ar  
    50    26    30 ar  
    51    27    28 ar  
    52    27    56 1   
    53    28    29 ar  
    54    28    57 1   
    55    29    31 ar  
    56    29    58 1   
    57    30    31 ar  
    58    30    59 1   
    59    31    32 1   
    60    32    33 1   
    61    32    34 1   
@<TRIPOS>SUBSTRUCTURE
     1 C98         1 TEMP              0 ****  ****    0 ROOT
