@<TRIPOS>MOLECULE
molecule
   59    61     1     0     0
SMALL
bcc


@<TRIPOS>ATOM
      1 Cl           0.0000     0.0000     0.0000 cl         1 C98      -0.106400
      2 C17          1.7350     0.0000     0.0000 ca         1 C98       0.035400
      3 C16          2.4350     0.0000     1.2060 cp         1 C98      -0.032000
      4 C19          1.6980     0.0010     2.4940 cp         1 C98      -0.044000
      5 C24          2.0230    -0.9230     3.4860 ca         1 C98      -0.107000
      6 C23          1.3350    -0.9180     4.6820 ca         1 C98      -0.132000
      7 C22          0.3230     0.0010     4.8970 ca         1 C98      -0.125000
      8 C21         -0.0030     0.9190     3.9160 ca         1 C98      -0.132000
      9 C20          0.6820     0.9280     2.7180 ca         1 C98      -0.107000
     10 C15          3.8280    -0.0010     1.1980 ca         1 C98      -0.111000
     11 C14          4.5090    -0.0010    -0.0040 ca         1 C98      -0.104000
     12 C18          2.4270    -0.0070    -1.1960 ca         1 C98      -0.119000
     13 C13          3.8110    -0.0010    -1.1980 ca         1 C98      -0.073300
     14 C12          4.5590    -0.0080    -2.5050 c3         1 C98       0.204100
     15 N2           4.7980     1.3740    -2.9410 n7         1 C98      -0.818200
     16 C11          5.5280     1.4070    -4.2150 c3         1 C98       0.159800
     17 C10          5.7560     2.8610    -4.6340 c3         1 C98      -0.102400
     18 C9           6.5170     2.8950    -5.9610 c3         1 C98       0.117000
     19 N1           6.7350     4.2860    -6.3640 ns         1 C98      -0.604900
     20 C8           7.3890     4.5620    -7.5090 c          1 C98       0.650100
     21 O3           7.7970     3.6580    -8.2070 o          1 C98      -0.530100
     22 C7           7.6150     5.9940    -7.9220 c3         1 C98      -0.239400
     23 C6           8.3640     6.0270    -9.2300 c          1 C98       0.642100
     24 O2           8.6830     4.9900    -9.7730 o          1 C98      -0.514100
     25 N            8.6780     7.2090    -9.7960 ns         1 C98      -0.480100
     26 C5           9.4560     7.2430   -10.9590 ca         1 C98       0.008600
     27 C4          10.3710     8.2710   -11.1540 ca         1 C98      -0.185000
     28 C3          11.1420     8.3100   -12.3010 ca         1 C98      -0.153000
     29 C2          11.0090     7.3270   -13.2590 ca         1 C98      -0.105000
     30 C25          9.3200     6.2470   -11.9130 ca         1 C98      -0.097000
     31 C1          10.0940     6.2890   -13.0730 ca         1 C98      -0.090600
     32 C            9.9540     5.2310   -14.0960 c          1 C98       0.882200
     33 O1          10.7020     5.2740   -15.2160 o          1 C98      -0.834300
     34 O            9.1640     4.3240   -13.9270 o          1 C98      -0.834300
     35 H1           2.8150    -1.6430     3.3190 ha         1 C98       0.137500
     36 H2           1.5870    -1.6350     5.4530 ha         1 C98       0.128500
     37 H3          -0.2160    -0.0000     5.8370 ha         1 C98       0.127000
     38 H4          -0.7940     1.6380     4.0900 ha         1 C98       0.128500
     39 H5           0.4250     1.6480     1.9510 ha         1 C98       0.137500
     40 H6           4.3760    -0.0010     2.1320 ha         1 C98       0.141000
     41 H7           5.5920     0.0000    -0.0120 ha         1 C98       0.142000
     42 H8           1.8860    -0.0070    -2.1340 ha         1 C98       0.144000
     43 H9           5.5080    -0.5140    -2.3750 h1         1 C98       0.042200
     44 H10          3.9730    -0.5270    -3.2540 h1         1 C98       0.042200
     45 H11          3.9220     1.8470    -3.0450 hn         1 C98       0.355800
     46 H13          4.9480     0.8990    -4.9760 h1         1 C98       0.038200
     47 H14          6.4830     0.9110    -4.0970 h1         1 C98       0.038200
     48 H15          6.3360     3.3690    -3.8730 hc         1 C98       0.049700
     49 H16          4.8010     3.3570    -4.7530 hc         1 C98       0.049700
     50 H17          7.4730     2.3990    -5.8420 h1         1 C98       0.054200
     51 H18          5.9380     2.3850    -6.7220 h1         1 C98       0.054200
     52 H19          6.4000     5.0320    -5.7870 hn         1 C98       0.302500
     53 H20          6.6590     6.4900    -8.0410 hc         1 C98       0.066700
     54 H21          8.1940     6.5030    -7.1610 hc         1 C98       0.066700
     55 H22          8.3250     8.0600    -9.4060 hn         1 C98       0.300500
     56 H23         10.4790     9.0460   -10.4040 ha         1 C98       0.097000
     57 H24         11.8520     9.1140   -12.4470 ha         1 C98       0.105000
     58 H25         11.6130     7.3620   -14.1580 ha         1 C98       0.153000
     59 H26          8.6080     5.4440   -11.7630 ha         1 C98       0.181000
@<TRIPOS>BOND
     1     1     2 1
     2     8     9 ar
     3     8     7 ar
     4     2    12 ar
     5     2     3 ar
     6     9     4 ar
     7    12    13 ar
     8     7     6 ar
     9     4     3 1
    10     4     5 ar
    11     6     5 ar
    12     3    10 ar
    13    13    14 1
    14    13    11 ar
    15    14    15 1
    16    10    11 ar
    17    16    15 1
    18    16    17 1
    19    18    17 1
    20    18    19 1
    21    19    20 1
    22    21    20 2
    23    20    22 1
    24    22    23 1
    25    23    25 1
    26    23    24 2
    27    25    26 1
    28    26    30 ar
    29    26    27 ar
    30    30    31 ar
    31    34    32 1
    32    27    28 ar
    33    31    32 1
    34    31    29 ar
    35    32    33 1
    36    28    29 ar
    37     5    35 1
    38     6    36 1
    39     7    37 1
    40     8    38 1
    41     9    39 1
    42    10    40 1
    43    11    41 1
    44    12    42 1
    45    14    43 1
    46    14    44 1
    47    15    45 1
    48    16    46 1
    49    16    47 1
    50    17    48 1
    51    17    49 1
    52    18    50 1
    53    18    51 1
    54    19    52 1
    55    22    53 1
    56    22    54 1
    57    25    55 1
    58    27    56 1
    59    28    57 1
    60    29    58 1
    61    30    59 1
@<TRIPOS>SUBSTRUCTURE
     1 C98         1 TEMP              0 ****  ****    0 ROOT
