@<TRIPOS>MOLECULE
C9A
   70    74     1     0     0
SMALL
bcc


@<TRIPOS>ATOM
      1 C1           0.0000     0.0000     0.0000 c3         1 C9A       0.190100
      2 N2           1.4690     0.0000     0.0000 n3         1 C9A      -0.553600
      3 C3           1.9960     0.0000     1.3720 c3         1 C9A       0.154300
      4 C4           3.5240    -0.0800     1.3290 c3         1 C9A       0.149800
      5 N5           4.0500     1.0610     0.5660 nh         1 C9A      -0.398000
      6 C6           3.5230     1.0610    -0.8060 c3         1 C9A       0.149800
      7 C7           1.9960     1.1400    -0.7630 c3         1 C9A       0.154300
      8 C8           5.4420     1.0610     0.5650 ca         1 C9A       0.043600
      9 C9           6.1360     2.1500     1.1010 ca         1 C9A       0.099900
     10 F10          5.4510     3.1950     1.6160 f          1 C9A      -0.114900
     11 C11          7.5020     2.1620     1.1080 ca         1 C9A      -0.041000
     12 C12          8.2080     1.0810     0.5760 ca         1 C9A      -0.166600
     13 C13          9.6810     1.0650     0.5700 c          1 C9A       0.643900
     14 O14         10.3280     1.9910     1.0270 o          1 C9A      -0.560100
     15 C15         10.3380    -0.1170    -0.0120 cc         1 C9A      -0.373400
     16 C16          9.5560    -1.1370    -0.5150 cd         1 C9A       0.038000
     17 N17          8.2180    -1.0870    -0.4910 na         1 C9A      -0.031800
     18 C18          7.4640    -2.2140    -1.0460 c3         1 C9A       0.166100
     19 C19          7.2050    -3.2270     0.0390 ca         1 C9A      -0.090300
     20 C20          8.1160    -4.2420     0.2690 ca         1 C9A      -0.121500
     21 C21          7.8770    -5.1720     1.2630 ca         1 C9A       0.011000
     22 C22          6.7300    -5.0860     2.0290 ca         1 C9A      -0.147500
     23 C23          5.8190    -4.0720     1.7990 ca         1 C9A       0.011000
     24 C24          6.0600    -3.1400     0.8070 ca         1 C9A      -0.121500
     25 S25          6.4260    -6.2720     3.2960 sy         1 C9A       0.873300
     26 C26          7.1930    -5.5570     4.7780 c3         1 C9A       0.031700
     27 O27          5.0110    -6.2900     3.4280 o          1 C9A      -0.584800
     28 O28          7.1370    -7.4270     2.8740 o          1 C9A      -0.584800
     29 C29          7.5190    -0.0200     0.0340 ca         1 C9A       0.007600
     30 C30          6.1310    -0.0210     0.0400 ca         1 C9A      -0.197000
     31 C31         11.8050    -0.2090    -0.0570 c          1 C9A       0.754300
     32 O32         12.3380    -1.1890    -0.5380 o          1 C9A      -0.627000
     33 O33         12.5580     0.7950     0.4380 os         1 C9A      -0.369900
     34 C34         14.0000     0.6360     0.3600 c3         1 C9A       0.277700
     35 C35         14.6700     1.8460     0.9560 ca         1 C9A      -0.109300
     36 C36         14.9740     2.9320     0.1560 ca         1 C9A      -0.061500
     37 C37         15.5900     4.0420     0.7020 ca         1 C9A      -0.104500
     38 C38         15.9030     4.0670     2.0490 ca         1 C9A      -0.023600
     39 Cl39        16.6770     5.4610     2.7350 cl         1 C9A      -0.031400
     40 C40         15.5990     2.9800     2.8490 ca         1 C9A      -0.104500
     41 C41         14.9780     1.8720     2.3030 ca         1 C9A      -0.061500
     42 H1          -0.3610    -0.0340    -1.0210 h1         1 C9A       0.002367
     43 H1A         -0.3610    -0.8670     0.5390 h1         1 C9A       0.002367
     44 H1B         -0.3610     0.9010     0.4810 h1         1 C9A       0.002367
     45 H3           1.6050    -0.8570     1.9080 h1         1 C9A       0.018700
     46 H3A          1.6970     0.9130     1.8730 h1         1 C9A       0.018700
     47 H4           3.9150    -0.0490     2.3390 h1         1 C9A       0.016450
     48 H4A          3.8230    -1.0040     0.8490 h1         1 C9A       0.016450
     49 H6           3.9130     1.9180    -1.3420 h1         1 C9A       0.016450
     50 H6A          3.8220     0.1480    -1.3070 h1         1 C9A       0.016450
     51 H7           1.6050     1.1090    -1.7730 h1         1 C9A       0.018700
     52 H7A          1.6970     2.0640    -0.2820 h1         1 C9A       0.018700
     53 H11          8.0350     3.0080     1.5250 ha         1 C9A       0.146000
     54 H16         10.0410    -2.0060    -0.9430 h4         1 C9A       0.148000
     55 H18          8.0370    -2.6760    -1.8410 h1         1 C9A       0.048700
     56 H18A         6.5210    -1.8580    -1.4410 h1         1 C9A       0.048700
     57 H20          9.0150    -4.3090    -0.3310 ha         1 C9A       0.118500
     58 H21          8.5900    -5.9670     1.4430 ha         1 C9A       0.128000
     59 H23          4.9210    -4.0040     2.4010 ha         1 C9A       0.128000
     60 H24          5.3460    -2.3440     0.6270 ha         1 C9A       0.118500
     61 H26          8.2530    -5.4150     4.6030 h1         1 C9A       0.060700
     62 H26A         6.7320    -4.6020     4.9980 h1         1 C9A       0.060700
     63 H26B         7.0530    -6.2290     5.6160 h1         1 C9A       0.060700
     64 H30          5.5880    -0.8250    -0.4430 ha         1 C9A       0.141000
     65 H34         14.2960     0.5320    -0.6770 h1         1 C9A       0.011700
     66 H34A        14.2960    -0.2490     0.9100 h1         1 C9A       0.011700
     67 H36         14.7290     2.9130    -0.8990 ha         1 C9A       0.108500
     68 H37         15.8280     4.8930     0.0750 ha         1 C9A       0.114000
     69 H40         15.8420     2.9990     3.9050 ha         1 C9A       0.114000
     70 H41         14.7400     1.0210     2.9300 ha         1 C9A       0.108500
@<TRIPOS>BOND
     1     1     2 1   
     2     1    42 1   
     3     1    43 1   
     4     1    44 1   
     5     2     3 1   
     6     2     7 1   
     7     3     4 1   
     8     3    45 1   
     9     3    46 1   
    10     4     5 1   
    11     4    47 1   
    12     4    48 1   
    13     5     6 1   
    14     5     8 1   
    15     6     7 1   
    16     6    49 1   
    17     6    50 1   
    18     7    51 1   
    19     7    52 1   
    20     8     9 ar  
    21     8    30 ar  
    22     9    10 1   
    23     9    11 ar  
    24    11    12 ar  
    25    11    53 1   
    26    12    13 1   
    27    12    29 ar  
    28    13    14 2   
    29    13    15 1   
    30    15    16 2   
    31    15    31 1   
    32    16    17 1   
    33    16    54 1   
    34    17    18 1   
    35    17    29 1   
    36    18    19 1   
    37    18    55 1   
    38    18    56 1   
    39    19    20 ar  
    40    19    24 ar  
    41    20    21 ar  
    42    20    57 1   
    43    21    22 ar  
    44    21    58 1   
    45    22    23 ar  
    46    22    25 1   
    47    23    24 ar  
    48    23    59 1   
    49    24    60 1   
    50    25    26 1   
    51    25    27 2   
    52    25    28 2   
    53    26    61 1   
    54    26    62 1   
    55    26    63 1   
    56    29    30 ar  
    57    30    64 1   
    58    31    32 2   
    59    31    33 1   
    60    33    34 1   
    61    34    35 1   
    62    34    65 1   
    63    34    66 1   
    64    35    36 ar  
    65    35    41 ar  
    66    36    37 ar  
    67    36    67 1   
    68    37    38 ar  
    69    37    68 1   
    70    38    39 1   
    71    38    40 ar  
    72    40    41 ar  
    73    40    69 1   
    74    41    70 1   
@<TRIPOS>SUBSTRUCTURE
     1 C9A         1 TEMP              0 ****  ****    0 ROOT
