@<TRIPOS>MOLECULE
C9B
   37    40     1     0     0
SMALL
bcc


@<TRIPOS>ATOM
      1 C1           0.0000     0.0000     0.0000 ca         1 C9B       0.337300
      2 C2           1.4710     0.0000     0.0000 ca         1 C9B      -0.301300
      3 C3           2.1580     0.0000     1.2900 ca         1 C9B       0.118600
      4 C7           3.5240     1.5280     3.2620 ca         1 C9B      -0.130300
      5 C8           3.9980     0.7650     4.3130 ca         1 C9B      -0.107500
      6 C9           3.5280     0.9880     5.5950 ca         1 C9B      -0.102000
      7 C10          2.5860     1.9730     5.8250 ca         1 C9B      -0.097000
      8 C11          2.1140     2.7350     4.7740 ca         1 C9B      -0.102000
      9 C12          2.5820     2.5130     3.4920 ca         1 C9B      -0.107500
     10 C13          5.5700     1.2660     1.8840 c3         1 C9B       0.219400
     11 C14          5.5490    -1.1030     2.2340 c3         1 C9B       0.209400
     12 C15          4.0170    -1.1030     2.2200 c3         1 C9B       0.068800
     13 C16          1.8670    -0.0020    -1.3200 cc         1 C9B      -0.253100
     14 N1          -0.6500    -0.0040     1.1760 nb         1 C9B      -0.557000
     15 C4           1.3680     0.0010     2.4290 ca         1 C9B      -0.312300
     16 N2           3.5390    -0.0010     1.3720 nh         1 C9B      -0.388000
     17 N3           0.7630    -0.0020    -2.0790 na         1 C9B       0.551800
     18 C5          -0.0160    -0.0010     2.3220 ca         1 C9B       0.447200
     19 C6           4.0400     1.2910     1.8660 c3         1 C9B       0.149800
     20 N4          -0.3750    -0.0010    -1.2650 nc         1 C9B      -0.424400
     21 O1           6.0150     0.1700     2.6870 os         1 C9B      -0.406600
     22 H1           4.7360    -0.0070     4.1330 ha         1 C9B       0.133000
     23 H2           3.8990     0.3900     6.4190 ha         1 C9B       0.104500
     24 H3           2.2190     2.1470     6.8290 ha         1 C9B       0.103000
     25 H4           1.3750     3.5070     4.9540 ha         1 C9B       0.104500
     26 H5           2.2110     3.1110     2.6690 ha         1 C9B       0.133000
     27 H6           5.9410     1.1460     0.8730 h1         1 C9B       0.017700
     28 H7           5.9410     2.1940     2.3040 h1         1 C9B       0.017700
     29 H8           5.9030    -1.8770     2.9040 h1         1 C9B       0.015700
     30 H9           5.9180    -1.2870     1.2320 h1         1 C9B       0.015700
     31 H10          3.6600    -2.0450     1.8220 h1         1 C9B       0.040200
     32 H11          3.6480    -0.9670     3.2290 h1         1 C9B       0.040200
     33 H12          2.8890    -0.0020    -1.6790 h4         1 C9B       0.154000
     34 H13          1.8330     0.0030     3.4070 ha         1 C9B       0.144000
     35 H14          0.7540    -0.0020    -3.0800 hn         1 C9B       0.142700
     36 H15         -0.6020     0.0000     3.2330 h4         1 C9B      -0.024900
     37 H16          3.7010     2.0830     1.2100 h1         1 C9B       0.047700
@<TRIPOS>BOND
     1     1     2 ar  
     2     1    14 ar  
     3     1    20 2   
     4     2     3 ar  
     5     2    13 2   
     6     3    15 ar  
     7     3    16 1   
     8     4     5 ar  
     9     4     9 ar  
    10     4    19 1   
    11     5     6 ar  
    12     5    22 1   
    13     6     7 ar  
    14     6    23 1   
    15     7     8 ar  
    16     7    24 1   
    17     8     9 ar  
    18     8    25 1   
    19     9    26 1   
    20    10    19 1   
    21    10    21 1   
    22    10    27 1   
    23    10    28 1   
    24    11    12 1   
    25    11    21 1   
    26    11    29 1   
    27    11    30 1   
    28    12    16 1   
    29    12    31 1   
    30    12    32 1   
    31    13    17 1   
    32    13    33 1   
    33    14    18 ar  
    34    15    18 ar  
    35    15    34 1   
    36    16    19 1   
    37    17    20 1   
    38    17    35 1   
    39    18    36 1   
    40    19    37 1   
@<TRIPOS>SUBSTRUCTURE
     1 C9B         1 TEMP              0 ****  ****    0 ROOT
