@<TRIPOS>MOLECULE
molecule
   37    40     1     0     0
SMALL
bcc


@<TRIPOS>ATOM
      1 C1           0.0000     0.0000     0.0000 ca         1 C9B       0.356300
      2 C2           1.4710     0.0000     0.0000 ca         1 C9B      -0.302300
      3 C3           2.1580     0.0000     1.2900 ca         1 C9B       0.189600
      4 C7           3.5240     1.5280     3.2620 ca         1 C9B      -0.131300
      5 C8           3.9980     0.7650     4.3130 ca         1 C9B      -0.118500
      6 C9           3.5280     0.9880     5.5950 ca         1 C9B      -0.134500
      7 C10          2.5860     1.9730     5.8250 ca         1 C9B      -0.123000
      8 C11          2.1140     2.7350     4.7740 ca         1 C9B      -0.134500
      9 C12          2.5820     2.5130     3.4920 ca         1 C9B      -0.118500
     10 C13          5.5700     1.2660     1.8840 c3         1 C9B       0.147400
     11 C14          5.5490    -1.1030     2.2340 c3         1 C9B       0.132400
     12 C15          4.0170    -1.1030     2.2200 c3         1 C9B       0.112800
     13 C16          1.8670    -0.0020    -1.3200 cc         1 C9B      -0.086100
     14 N1          -0.6500    -0.0040     1.1760 nb         1 C9B      -0.679000
     15 C4           1.3680     0.0010     2.4290 ca         1 C9B      -0.331300
     16 N2           3.5390    -0.0010     1.3720 nh         1 C9B      -0.611000
     17 N3           0.7630    -0.0020    -2.0790 na         1 C9B       0.022800
     18 C5          -0.0160    -0.0010     2.3220 ca         1 C9B       0.480200
     19 C6           4.0400     1.2910     1.8660 c3         1 C9B       0.189800
     20 N4          -0.3750    -0.0010    -1.2650 nc         1 C9B      -0.256400
     21 O1           6.0150     0.1700     2.6870 os         1 C9B      -0.421600
     22 H1           4.7360    -0.0070     4.1330 ha         1 C9B       0.149000
     23 H2           3.8990     0.3900     6.4190 ha         1 C9B       0.131500
     24 H3           2.2190     2.1470     6.8290 ha         1 C9B       0.130000
     25 H4           1.3750     3.5070     4.9540 ha         1 C9B       0.131500
     26 H5           2.2110     3.1110     2.6690 ha         1 C9B       0.149000
     27 H6           5.9410     1.1460     0.8730 h1         1 C9B       0.059200
     28 H7           5.9410     2.1940     2.3040 h1         1 C9B       0.059200
     29 H8           5.9030    -1.8770     2.9040 h1         1 C9B       0.056200
     30 H9           5.9180    -1.2870     1.2320 h1         1 C9B       0.056200
     31 H10          3.6600    -2.0450     1.8220 h1         1 C9B       0.059700
     32 H11          3.6480    -0.9670     3.2290 h1         1 C9B       0.059700
     33 H12          2.8890    -0.0020    -1.6790 h4         1 C9B       0.182000
     34 H13          1.8330     0.0030     3.4070 ha         1 C9B       0.155000
     35 H14          0.7540    -0.0020    -3.0800 hn         1 C9B       0.335700
     36 H15         -0.6020     0.0000     3.2330 h4         1 C9B       0.024100
     37 H16          3.7010     2.0830     1.2100 h1         1 C9B       0.079700
@<TRIPOS>BOND
     1    11    21 1
     2    11    12 1
     3    21    10 1
     4    10    19 1
     5    12    16 1
     6    15    18 ar
     7    15     3 ar
     8    16    19 1
     9    16     3 1
    10    18    14 ar
    11    19     4 1
    12     3     2 ar
    13    14     1 ar
    14     2     1 ar
    15     2    13 2
    16     4     5 ar
    17     4     9 ar
    18     1    20 2
    19     5     6 ar
    20     9     8 ar
    21    13    17 1
    22    20    17 1
    23     6     7 ar
    24     8     7 ar
    25     5    22 1
    26     6    23 1
    27     7    24 1
    28     8    25 1
    29     9    26 1
    30    10    27 1
    31    10    28 1
    32    11    29 1
    33    11    30 1
    34    12    31 1
    35    12    32 1
    36    13    33 1
    37    15    34 1
    38    17    35 1
    39    18    36 1
    40    19    37 1
@<TRIPOS>SUBSTRUCTURE
     1 C9B         1 TEMP              0 ****  ****    0 ROOT
