@<TRIPOS>MOLECULE
C9D
   45    46     1     0     0
SMALL
bcc


@<TRIPOS>ATOM
      1 OAF          0.0000     0.0000     0.0000 o          1 C9D      -0.676867
      2 SAY          1.4210     0.0000     0.0000 s6         1 C9D       1.328300
      3 OAD          1.8510     0.0000     1.4600 o          1 C9D      -0.676867
      4 OAE          2.1980    -0.9980    -0.6480 o          1 C9D      -0.676867
      5 OAR          1.8510     1.3330    -0.5970 os         1 C9D      -0.380000
      6 NAQ          3.2860     1.4320    -0.8590 n7         1 C9D      -0.292700
      7 CAU          3.6280     2.7410    -1.4320 c3         1 C9D       0.095500
      8 CAJ          4.8480     2.5960    -2.3440 c3         1 C9D      -0.034400
      9 CB           5.1850     3.9540    -2.9680 c3         1 C9D      -0.030400
     10 CAM          3.9520     3.7250    -0.3040 c3         1 C9D       0.053000
     11 N            4.4150     4.9870    -0.8950 n          1 C9D      -0.175800
     12 CAG          3.8340     6.1560    -0.5620 c          1 C9D       0.612900
     13 OAA          2.8560     6.1640     0.1560 o          1 C9D      -0.641100
     14 CA           5.5260     4.9500    -1.8560 c3         1 C9D      -0.018300
     15 C            5.7250     6.3210    -2.4510 c          1 C9D       0.564100
     16 O            4.7670     6.9650    -2.8230 o          1 C9D      -0.648100
     17 NAP          6.9670     6.8310    -2.5690 ns         1 C9D      -0.143500
     18 NAO          7.1510     8.1050    -3.1220 ns         1 C9D      -0.146500
     19 CAS          8.3940     8.6150    -3.2400 c          1 C9D       0.585100
     20 OAB          9.3520     7.9710    -2.8670 o          1 C9D      -0.649100
     21 CAV          8.5920     9.9850    -3.8350 c3         1 C9D      -0.127700
     22 CAI         10.0880    10.3750    -3.7980 c3         1 C9D      -0.017400
     23 CAH         10.0450    11.8800    -3.4330 c3         1 C9D       0.140800
     24 NAN          8.9200    11.9630    -2.4660 n7         1 C9D      -0.575200
     25 CAL          7.8790    11.0480    -2.9790 c3         1 C9D       0.149800
     26 H1           3.5600     0.7080    -1.4930 hn         1 C9D       0.264800
     27 H2           2.7910     3.1180    -2.0090 h1         1 C9D       0.034700
     28 H3           4.6280     1.8840    -3.1300 hc         1 C9D       0.022700
     29 H4           5.6930     2.2490    -1.7610 hc         1 C9D       0.022700
     30 H5           6.0360     3.8450    -3.6290 hc         1 C9D       0.023200
     31 H6           4.3300     4.3150    -3.5270 hc         1 C9D       0.023200
     32 H7           3.0610     3.9060     0.2860 h1         1 C9D       0.053200
     33 H8           4.7320     3.3110     0.3240 h1         1 C9D       0.053200
     34 H9           4.2660     7.0910    -0.8980 h5         1 C9D      -0.003800
     35 H10          6.4310     4.6330    -1.3510 h1         1 C9D       0.027700
     36 H11          7.7570     6.2980    -2.2650 hn         1 C9D       0.221500
     37 H12          6.3650     8.6190    -3.4690 hn         1 C9D       0.217500
     38 H13          8.2240    10.0160    -4.8530 hc         1 C9D       0.039700
     39 H14         10.5440    10.2310    -4.7690 hc         1 C9D       0.040200
     40 H15         10.6100     9.8120    -3.0330 hc         1 C9D       0.040200
     41 H16          9.8370    12.4790    -4.3110 h1         1 C9D       0.009200
     42 H17         10.9730    12.1850    -2.9650 h1         1 C9D       0.009200
     43 H18          8.5640    12.8980    -2.4480 hn         1 C9D       0.250800
     44 H20          7.1740    11.5990    -3.5890 h1         1 C9D       0.013200
     45 H21          7.3670    10.5710    -2.1520 h1         1 C9D       0.013200
@<TRIPOS>BOND
     1     1     2 1   
     2     2     3 1   
     3     2     4 1   
     4     2     5 1   
     5     5     6 1   
     6     6     7 1   
     7     6    26 1   
     8     7     8 1   
     9     7    10 1   
    10     7    27 1   
    11     8     9 1   
    12     8    28 1   
    13     8    29 1   
    14     9    14 1   
    15     9    30 1   
    16     9    31 1   
    17    10    11 1   
    18    10    32 1   
    19    10    33 1   
    20    11    12 1   
    21    11    14 1   
    22    12    13 2   
    23    12    34 1   
    24    14    15 1   
    25    14    35 1   
    26    15    16 2   
    27    15    17 1   
    28    17    18 1   
    29    17    36 1   
    30    18    19 1   
    31    18    37 1   
    32    19    20 2   
    33    19    21 1   
    34    21    22 1   
    35    21    25 1   
    36    21    38 1   
    37    22    23 1   
    38    22    39 1   
    39    22    40 1   
    40    23    24 1   
    41    23    41 1   
    42    23    42 1   
    43    24    25 1   
    44    24    43 1   
    45    25    44 1   
    46    25    45 1   
@<TRIPOS>SUBSTRUCTURE
     1 C9D         1 TEMP              0 ****  ****    0 ROOT
