@<TRIPOS>MOLECULE
molecule
   45    46     1     0     0
SMALL
bcc


@<TRIPOS>ATOM
      1 OAF          0.0000     0.0000     0.0000 o          1 C9D      -0.733533
      2 SAY          1.4210     0.0000     0.0000 s6         1 C9D       1.560300
      3 OAD          1.8510     0.0000     1.4600 o          1 C9D      -0.733533
      4 OAE          2.1980    -0.9980    -0.6480 o          1 C9D      -0.733533
      5 OAR          1.8510     1.3330    -0.5970 os         1 C9D      -0.446000
      6 NAQ          3.2860     1.4320    -0.8590 n7         1 C9D      -0.491700
      7 CAU          3.6280     2.7410    -1.4320 c3         1 C9D       0.135500
      8 CAJ          4.8480     2.5960    -2.3440 c3         1 C9D      -0.093400
      9 CB           5.1850     3.9540    -2.9680 c3         1 C9D      -0.085400
     10 CAM          3.9520     3.7250    -0.3040 c3         1 C9D       0.118000
     11 N            4.4150     4.9870    -0.8950 n          1 C9D      -0.498800
     12 CAG          3.8340     6.1560    -0.5620 c          1 C9D       0.658900
     13 OAA          2.8560     6.1640     0.1560 o          1 C9D      -0.601100
     14 CA           5.5260     4.9500    -1.8560 c3         1 C9D       0.060700
     15 C            5.7250     6.3210    -2.4510 c          1 C9D       0.646100
     16 O            4.7670     6.9650    -2.8230 o          1 C9D      -0.612100
     17 NAP          6.9670     6.8310    -2.5690 ns         1 C9D      -0.430500
     18 NAO          7.1510     8.1050    -3.1220 ns         1 C9D      -0.434500
     19 CAS          8.3940     8.6150    -3.2400 c          1 C9D       0.666100
     20 OAB          9.3520     7.9710    -2.8670 o          1 C9D      -0.610100
     21 CAV          8.5920     9.9850    -3.8350 c3         1 C9D      -0.151700
     22 CAI         10.0880    10.3750    -3.7980 c3         1 C9D      -0.066400
     23 CAH         10.0450    11.8800    -3.4330 c3         1 C9D       0.135800
     24 NAN          8.9200    11.9630    -2.4660 n7         1 C9D      -0.789200
     25 CAL          7.8790    11.0480    -2.9790 c3         1 C9D       0.145800
     26 H1           3.5600     0.7080    -1.4930 hn         1 C9D       0.370800
     27 H2           2.7910     3.1180    -2.0090 h1         1 C9D       0.067700
     28 H3           4.6280     1.8840    -3.1300 hc         1 C9D       0.052200
     29 H4           5.6930     2.2490    -1.7610 hc         1 C9D       0.052200
     30 H5           6.0360     3.8450    -3.6290 hc         1 C9D       0.055700
     31 H6           4.3300     4.3150    -3.5270 hc         1 C9D       0.055700
     32 H7           3.0610     3.9060     0.2860 h1         1 C9D       0.086200
     33 H8           4.7320     3.3110     0.3240 h1         1 C9D       0.086200
     34 H9           4.2660     7.0910    -0.8980 h5         1 C9D       0.034200
     35 H10          6.4310     4.6330    -1.3510 h1         1 C9D       0.054700
     36 H11          7.7570     6.2980    -2.2650 hn         1 C9D       0.366500
     37 H12          6.3650     8.6190    -3.4690 hn         1 C9D       0.362500
     38 H13          8.2240    10.0160    -4.8530 hc         1 C9D       0.069700
     39 H14         10.5440    10.2310    -4.7690 hc         1 C9D       0.071700
     40 H15         10.6100     9.8120    -3.0330 hc         1 C9D       0.071700
     41 H16          9.8370    12.4790    -4.3110 h1         1 C9D       0.040700
     42 H17         10.9730    12.1850    -2.9650 h1         1 C9D       0.040700
     43 H18          8.5640    12.8980    -2.4480 hn         1 C9D       0.348800
     44 H20          7.1740    11.5990    -3.5890 h1         1 C9D       0.047200
     45 H21          7.3670    10.5710    -2.1520 h1         1 C9D       0.047200
@<TRIPOS>BOND
     1     4     2 1
     2     1     2 1
     3     2     5 1
     4     2     3 1
     5     5     6 1
     6     6     7 1
     7     9     8 1
     8     9    14 1
     9     8     7 1
    10    13    12 2
    11     7    10 1
    12    12    11 1
    13    14    11 1
    14    14    15 1
    15    11    10 1
    16    17    15 1
    17    17    18 1
    18    15    16 2
    19    18    19 1
    20    20    19 2
    21    19    21 1
    22    23    22 1
    23    23    24 1
    24    22    21 1
    25    21    25 1
    26    24    25 1
    27     6    26 1
    28     7    27 1
    29     8    28 1
    30     8    29 1
    31     9    30 1
    32     9    31 1
    33    10    32 1
    34    10    33 1
    35    12    34 1
    36    14    35 1
    37    17    36 1
    38    18    37 1
    39    21    38 1
    40    22    39 1
    41    22    40 1
    42    23    41 1
    43    23    42 1
    44    24    43 1
    45    25    44 1
    46    25    45 1
@<TRIPOS>SUBSTRUCTURE
     1 C9D         1 TEMP              0 ****  ****    0 ROOT
