@<TRIPOS>MOLECULE
molecule
   24    25     1     0     0
SMALL
bcc


@<TRIPOS>ATOM
      1 C1           0.0000     0.0000     0.0000 ca         1 C9E       0.457800
      2 C2           6.2010    -0.0080    -3.8660 c3         1 C9E      -0.097100
      3 C3           5.6630    -0.0050    -2.4350 c3         1 C9E       0.148400
      4 C7           1.8200     0.0000     1.4000 cc         1 C9E      -0.178200
      5 C8           2.1000    -0.0030    -1.2290 ca         1 C9E      -0.053600
      6 C9           1.4100     0.0000     0.0000 ca         1 C9E      -0.169100
      7 C10          0.6930     0.0010     2.1370 cd         1 C9E      -0.094100
      8 N1          -0.6600    -0.0060    -1.1480 nb         1 C9E      -0.694000
      9 N2          -0.4000     0.0010     1.3160 na         1 C9E      -0.280100
     10 C5          -0.0410    -0.0110    -2.3100 ca         1 C9E       0.431200
     11 C6           1.3390    -0.0120    -2.4010 ca         1 C9E      -0.232300
     12 C4           3.5750    -0.0030    -1.2760 c          1 C9E       0.651700
     13 O2           4.2160    -0.0030    -0.2440 o          1 C9E      -0.544000
     14 O1           4.2110    -0.0060    -2.4640 os         1 C9E      -0.430900
     15 H1           7.2850    -0.0070    -3.8450 hc         1 C9E       0.047700
     16 H2           5.8500     0.8760    -4.3860 hc         1 C9E       0.047700
     17 H3           5.8510    -0.8930    -4.3830 hc         1 C9E       0.047700
     18 H4           6.0140    -0.8890    -1.9160 h1         1 C9E       0.049700
     19 H5           6.0140     0.8800    -1.9190 h1         1 C9E       0.049700
     20 H6           2.8360    -0.0000     1.7750 ha         1 C9E       0.181000
     21 H7           0.6580     0.0020     3.2190 h4         1 C9E       0.173000
     22 H8          -1.3510     0.0020     1.6270 hn         1 C9E       0.306700
     23 H9          -0.6290    -0.0190    -3.2200 h4         1 C9E       0.028100
     24 H10          1.8240    -0.0170    -3.3690 ha         1 C9E       0.155000
@<TRIPOS>BOND
     1    10    11 ar
     2    10     8 ar
     3    11     5 ar
     4    13    12 2
     5     8     1 ar
     6     5    12 1
     7     5     6 ar
     8    12    14 1
     9     1     6 ar
    10     1     9 1
    11     6     4 1
    12    14     3 1
    13     3     2 1
    14     9     7 1
    15     4     7 2
    16     2    15 1
    17     2    16 1
    18     2    17 1
    19     3    18 1
    20     3    19 1
    21     4    20 1
    22     7    21 1
    23     9    22 1
    24    10    23 1
    25    11    24 1
@<TRIPOS>SUBSTRUCTURE
     1 C9E         1 TEMP              0 ****  ****    0 ROOT
