@<TRIPOS>MOLECULE
molecule
   37    40     1     0     0
SMALL
bcc


@<TRIPOS>ATOM
      1 C4           0.0000     0.0000     0.0000 ca         1 C9G      -0.103000
      2 C5           1.3680     0.0000     0.0000 ca         1 C9G      -0.194300
      3 C6           2.0630     0.0000     1.2170 ca         1 C9G       0.399300
      4 N1           5.6270     0.0020     1.8560 na         1 C9G       0.145300
      5 C7           3.5460     0.0010     1.2050 cc         1 C9G       0.194300
      6 C8           4.3500     0.0010     2.3060 cd         1 C9G      -0.169600
      7 N2           5.5610     0.0070     0.4560 nd         1 C9G      -0.182800
      8 C9           6.7910     0.0020     2.6390 ca         1 C9G       0.007800
      9 C10          6.6970    -0.0020     4.0240 ca         1 C9G      -0.117500
     10 C11          7.8430    -0.0010     4.7940 ca         1 C9G      -0.136500
     11 C12          9.0880     0.0040     4.1850 ca         1 C9G       0.105100
     12 N3           4.3200     0.0050     0.1100 nc         1 C9G      -0.328000
     13 C13          9.1840     0.0090     2.8000 ca         1 C9G      -0.136500
     14 C14          8.0380     0.0030     2.0290 ca         1 C9G      -0.117500
     15 C15          0.0990     0.0010     2.4280 ca         1 C9G       0.368800
     16 N4           1.4250     0.0000     2.3750 nb         1 C9G      -0.638000
     17 N           -1.9720    -0.0000     3.7050 n          1 C9G      -0.350000
     18 C           -2.6810    -0.0000     4.9870 c3         1 C9G       0.089300
     19 O           10.2160     0.0060     4.9440 oh         1 C9G      -0.518100
     20 C1          -2.6980    -0.0000     2.5490 cc         1 C9G      -0.000400
     21 C16         -0.6240    -0.0000     3.7090 c          1 C9G       0.603000
     22 C2          -2.1180     0.0060     1.3370 cd         1 C9G      -0.209200
     23 C3          -0.6590     0.0070     1.2370 ca         1 C9G      -0.123100
     24 O1          -0.0120     0.0000     4.7610 o          1 C9G      -0.604500
     25 H1          -0.5570     0.0000    -0.9290 ha         1 C9G       0.146000
     26 H2           1.9090    -0.0930    -0.9330 ha         1 C9G       0.161000
     27 H3           4.0290    -0.0020     3.3400 h4         1 C9G       0.208000
     28 H4           5.7240    -0.0070     4.5010 ha         1 C9G       0.154500
     29 H5           7.7680    -0.0050     5.8750 ha         1 C9G       0.151000
     30 H6          10.1570     0.0120     2.3250 ha         1 C9G       0.151000
     31 H7           8.1130     0.0070     0.9490 ha         1 C9G       0.154500
     32 H8          -2.4110    -0.8860     5.5490 h1         1 C9G       0.054367
     33 H9          -2.4080     0.8830     5.5510 h1         1 C9G       0.054367
     34 H10         -3.7500     0.0010     4.8080 h1         1 C9G       0.054367
     35 H11         10.5030    -0.8810     5.0820 ho         1 C9G       0.423000
     36 H12         -3.7790    -0.0060     2.6110 h4         1 C9G       0.152000
     37 H13         -2.7270     0.0050     0.4410 ha         1 C9G       0.150000
@<TRIPOS>BOND
     1    18    17 1
     2    20    17 1
     3    20    22 2
     4    17    21 1
     5    22    23 1
     6    21    24 2
     7    21    15 1
     8    23    15 ar
     9    23     1 ar
    10    15    16 ar
    11     1     2 ar
    12    16     3 ar
    13     2     3 ar
    14     3     5 1
    15    12     5 1
    16    12     7 2
    17     5     6 2
    18     7     4 1
    19     6     4 1
    20     4     8 1
    21     9     8 ar
    22     9    10 ar
    23     8    14 ar
    24    10    11 ar
    25    14    13 ar
    26    11    13 ar
    27    11    19 1
    28     1    25 1
    29     2    26 1
    30     6    27 1
    31     9    28 1
    32    10    29 1
    33    13    30 1
    34    14    31 1
    35    18    32 1
    36    18    33 1
    37    18    34 1
    38    19    35 1
    39    20    36 1
    40    22    37 1
@<TRIPOS>SUBSTRUCTURE
     1 C9G         1 TEMP              0 ****  ****    0 ROOT
