@<TRIPOS>MOLECULE
C9G
   37    40     1     0     0
SMALL
bcc


@<TRIPOS>ATOM
      1 C4           0.0000     0.0000     0.0000 ca         1 C9G      -0.081000
      2 C5           1.3680     0.0000     0.0000 ca         1 C9G      -0.162300
      3 C6           2.0630     0.0000     1.2170 ca         1 C9G       0.342300
      4 N1           5.6270     0.0020     1.8560 na         1 C9G       0.637300
      5 C7           3.5460     0.0010     1.2050 cc         1 C9G       0.166300
      6 C8           4.3500     0.0010     2.3060 cd         1 C9G      -0.339600
      7 N2           5.5610     0.0070     0.4560 nd         1 C9G      -0.394800
      8 C9           6.7910     0.0020     2.6390 ca         1 C9G      -0.179200
      9 C10          6.6970    -0.0020     4.0240 ca         1 C9G      -0.070500
     10 C11          7.8430    -0.0010     4.7940 ca         1 C9G      -0.125000
     11 C12          9.0880     0.0040     4.1850 ca         1 C9G       0.136100
     12 N3           4.3200     0.0050     0.1100 nc         1 C9G      -0.246000
     13 C13          9.1840     0.0090     2.8000 ca         1 C9G      -0.125000
     14 C14          8.0380     0.0030     2.0290 ca         1 C9G      -0.070500
     15 C15          0.0990     0.0010     2.4280 ca         1 C9G       0.306800
     16 N4           1.4250     0.0000     2.3750 nb         1 C9G      -0.499000
     17 N           -1.9720    -0.0000     3.7050 n          1 C9G       0.065000
     18 C           -2.6810    -0.0000     4.9870 c3         1 C9G       0.058300
     19 O           10.2160     0.0060     4.9440 oh         1 C9G      -0.498100
     20 C1          -2.6980    -0.0000     2.5490 cc         1 C9G      -0.131400
     21 C16         -0.6240    -0.0000     3.7090 c          1 C9G       0.505000
     22 C2          -2.1180     0.0060     1.3370 cd         1 C9G      -0.169200
     23 C3          -0.6590     0.0070     1.2370 ca         1 C9G      -0.118100
     24 O1          -0.0120     0.0000     4.7610 o          1 C9G      -0.654500
     25 H1          -0.5570     0.0000    -0.9290 ha         1 C9G       0.116000
     26 H2           1.9090    -0.0930    -0.9330 ha         1 C9G       0.133000
     27 H3           4.0290    -0.0020     3.3400 h4         1 C9G       0.179000
     28 H4           5.7240    -0.0070     4.5010 ha         1 C9G       0.128000
     29 H5           7.7680    -0.0050     5.8750 ha         1 C9G       0.121000
     30 H6          10.1570     0.0120     2.3250 ha         1 C9G       0.121000
     31 H7           8.1130     0.0070     0.9490 ha         1 C9G       0.128000
     32 H8          -2.4110    -0.8860     5.5490 h1         1 C9G       0.021700
     33 H9          -2.4080     0.8830     5.5510 h1         1 C9G       0.021700
     34 H10         -3.7500     0.0010     4.8080 h1         1 C9G       0.021700
     35 H11         10.5030    -0.8810     5.0820 ho         1 C9G       0.407000
     36 H12         -3.7790    -0.0060     2.6110 h4         1 C9G       0.124000
     37 H13         -2.7270     0.0050     0.4410 ha         1 C9G       0.124000
@<TRIPOS>BOND
     1     1     2 ar  
     2     1    23 ar  
     3     1    25 1   
     4     2     3 ar  
     5     2    26 1   
     6     3     5 1   
     7     3    16 ar  
     8     4     6 1   
     9     4     7 1   
    10     4     8 1   
    11     5     6 2   
    12     5    12 1   
    13     6    27 1   
    14     7    12 2   
    15     8     9 ar  
    16     8    14 ar  
    17     9    10 ar  
    18     9    28 1   
    19    10    11 ar  
    20    10    29 1   
    21    11    13 ar  
    22    11    19 1   
    23    13    14 ar  
    24    13    30 1   
    25    14    31 1   
    26    15    16 ar  
    27    15    21 1   
    28    15    23 ar  
    29    17    18 1   
    30    17    20 1   
    31    17    21 1   
    32    18    32 1   
    33    18    33 1   
    34    18    34 1   
    35    19    35 1   
    36    20    22 2   
    37    20    36 1   
    38    21    24 2   
    39    22    23 1   
    40    22    37 1   
@<TRIPOS>SUBSTRUCTURE
     1 C9G         1 TEMP              0 ****  ****    0 ROOT
