@<TRIPOS>MOLECULE
C9H
   24    24     1     0     0
SMALL
bcc


@<TRIPOS>ATOM
      1 CAA         0.0660    0.0040   -0.1580 c3        1 C9H     -0.093100
      2 CAB         6.1170    0.0020    6.8230 cc        1 C9H      0.512900
      3 CAC         1.5670   -0.0010   -0.0230 c3        1 C9H     -0.080400
      4 CAD         1.9910    0.0010    1.4310 c3        1 C9H     -0.075400
      5 CAE         3.5010   -0.0040    1.5580 c3        1 C9H     -0.078400
      6 CAF         3.9130   -0.0020    3.0090 c3        1 C9H     -0.015300
      7 NAG         7.4310   -0.0030    6.4550 nd        1 C9H     -0.523800
      8 NAH         7.4100   -0.0070    5.1210 na        1 C9H     -0.143400
      9 NAI         5.2460    0.0010    5.7250 nc        1 C9H     -0.702000
     10 SAJ         5.6860   -0.0090    3.0060 ss        1 C9H     -0.234400
     11 CAK         6.0800   -0.0050    4.6470 cd        1 C9H      0.476800
     12 HAA        -0.3770   -0.8980    0.3290 hc        1 C9H      0.035033
     13 HAAA       -0.3700    0.9120    0.3250 hc        1 C9H      0.035033
     14 HAAB       -0.2260    0.0030   -1.2360 hc        1 C9H      0.035033
     15 HAC         1.9890   -0.9060   -0.5340 hc        1 C9H      0.040700
     16 HACA        1.9950    0.8990   -0.5380 hc        1 C9H      0.040700
     17 HAD         1.5670   -0.8990    1.9490 hc        1 C9H      0.045700
     18 HADA        1.5740    0.9070    1.9440 hc        1 C9H      0.045700
     19 HAE         3.9160   -0.9120    1.0440 hc        1 C9H      0.054700
     20 HAEA        3.9230    0.8980    1.0390 hc        1 C9H      0.054700
     21 HAF         3.5230    0.9030    3.5360 h1        1 C9H      0.085700
     22 HAFA        3.5160   -0.9000    3.5420 h1        1 C9H      0.085700
     23 HNAH        8.2480   -0.0110    4.5880 hn        1 C9H      0.331700
     24 HAB         5.7670    0.0060    7.8600 h5        1 C9H      0.071100
@<TRIPOS>BOND
     1    1    3 1   
     2    1   12 1   
     3    1   13 1   
     4    1   14 1   
     5    2    7 2   
     6    2    9 1   
     7    2   24 1   
     8    3    4 1   
     9    3   15 1   
    10    3   16 1   
    11    4    5 1   
    12    4   17 1   
    13    4   18 1   
    14    5    6 1   
    15    5   19 1   
    16    5   20 1   
    17    6   10 1   
    18    6   21 1   
    19    6   22 1   
    20    7    8 1   
    21    8   11 1   
    22    8   23 1   
    23    9   11 2   
    24   10   11 1   
@<TRIPOS>SUBSTRUCTURE
     1 C9H         1 TEMP              0 ****  ****    0 ROOT
