@<TRIPOS>MOLECULE
molecule
   24    24     1     0     0
SMALL
bcc


@<TRIPOS>ATOM
      1 CAA          0.0000     0.0000     0.0000 c3         1 C9H      -0.091100
      2 CAB          5.8750    -0.0020     6.7640 cc         1 C9H       0.575900
      3 CAC          1.5290     0.0000     0.0000 c3         1 C9H      -0.083400
      4 CAD          2.0400     0.0000     1.4420 c3         1 C9H      -0.077400
      5 CAE          3.5690    -0.0010     1.4420 c3         1 C9H      -0.075400
      6 CAF          4.0800    -0.0010     2.8850 c3         1 C9H       0.009700
      7 NAG          7.1700    -0.0020     6.5990 nd         1 C9H      -0.544800
      8 NAH          7.4080    -0.0030     5.2150 na         1 C9H      -0.158400
      9 NAI          5.2820    -0.0020     5.5700 nc         1 C9H      -0.780000
     10 SAJ          5.8890    -0.0010     2.8860 ss         1 C9H      -0.294400
     11 CAK          6.1960    -0.0020     4.6210 cd         1 C9H       0.558800
     12 HAA         -0.3610     0.8840     0.5110 hc         1 C9H       0.034700
     13 HAAA        -0.3610    -0.8850     0.5100 hc         1 C9H       0.034700
     14 HAAB        -0.3610     0.0000    -1.0210 hc         1 C9H       0.034700
     15 HAC          1.8910     0.8840    -0.5110 hc         1 C9H       0.041700
     16 HACA         1.8910    -0.8840    -0.5110 hc         1 C9H       0.041700
     17 HAD          1.6780    -0.8840     1.9530 hc         1 C9H       0.046700
     18 HADA         1.6790     0.8850     1.9530 hc         1 C9H       0.046700
     19 HAE          3.9300    -0.8860     0.9320 hc         1 C9H       0.051700
     20 HAEA         3.9310     0.8830     0.9320 hc         1 C9H       0.051700
     21 HAF          3.7190     0.8840     3.3960 h1         1 C9H       0.081700
     22 HAFA         3.7180    -0.8850     3.3960 h1         1 C9H       0.081700
     23 HNAH         8.2990    -0.0030     4.7600 hn         1 C9H       0.336700
     24 HAB          5.3630    -0.0020     7.7190 h5         1 C9H       0.079100
@<TRIPOS>BOND
     1     1     3 1
     2     2     7 2
     3     2     9 1
     4     3     4 1
     5     4     5 1
     6     5     6 1
     7     6    10 1
     8     7     8 1
     9     8    11 1
    10     9    11 2
    11    10    11 1
    12     1    12 1
    13     1    13 1
    14     1    14 1
    15     2    24 1
    16     3    15 1
    17     3    16 1
    18     4    17 1
    19     4    18 1
    20     5    19 1
    21     5    20 1
    22     6    21 1
    23     6    22 1
    24     8    23 1
@<TRIPOS>SUBSTRUCTURE
     1 C9H         1 TEMP              0 ****  ****    0 ROOT
