@<TRIPOS>MOLECULE
molecule
   37    40     1     0     0
SMALL
bcc


@<TRIPOS>ATOM
      1 C4           0.0000     0.0000     0.0000 ca         1 C9J      -0.103000
      2 C5           1.3670     0.0000     0.0000 ca         1 C9J      -0.193300
      3 C6           2.0620     0.0000     1.2170 ca         1 C9J       0.396300
      4 N1           5.6260     0.0010     1.8580 na         1 C9J       0.139300
      5 C7           3.5450     0.0010     1.2060 cc         1 C9J       0.198300
      6 C8           4.3480     0.0010     2.3070 cd         1 C9J      -0.167600
      7 N2           5.5600     0.0010     0.4570 nc         1 C9J      -0.179800
      8 C9           6.7900     0.0070     2.6420 ca         1 C9J       0.037800
      9 C10          8.0380     0.0050     2.0330 ca         1 C9J      -0.122000
     10 C11          9.1830     0.0110     2.8040 ca         1 C9J      -0.119000
     11 C12          9.0890     0.0170     4.1870 ca         1 C9J       0.067100
     12 N3           4.3190    -0.0000     0.1110 nd         1 C9J      -0.324000
     13 C13          7.8410     0.0190     4.7980 ca         1 C9J       0.137900
     14 C14          6.6940     0.0180     4.0270 ca         1 C9J      -0.179000
     15 C15          0.0980     0.0000     2.4270 ca         1 C9J       0.368800
     16 N4           1.4240     0.0010     2.3760 nb         1 C9J      -0.636000
     17 N           -1.9730    -0.0010     3.7030 n          1 C9J      -0.348000
     18 C           -2.6840    -0.0020     4.9840 c3         1 C9J       0.089300
     19 O           10.2180     0.0240     4.9460 oh         1 C9J      -0.504100
     20 C1          -2.6990     0.0040     2.5480 cd         1 C9J       0.000600
     21 C16         -0.6260    -0.0010     3.7080 c          1 C9J       0.602000
     22 C2          -2.1190     0.0050     1.3350 cc         1 C9J      -0.210200
     23 C3          -0.6610    -0.0010     1.2370 ca         1 C9J      -0.121100
     24 F            7.7490     0.0250     6.1460 f          1 C9J      -0.120900
     25 O1          -0.0140    -0.0010     4.7610 o          1 C9J      -0.603500
     26 H1          -0.5570    -0.0000    -0.9290 ha         1 C9J       0.146000
     27 H2           1.9090    -0.0990    -0.9330 ha         1 C9J       0.161000
     28 H3           4.0260     0.0010     3.3420 h4         1 C9J       0.210000
     29 H4           8.1130     0.0010     0.9520 ha         1 C9J       0.167000
     30 H5          10.1560     0.0100     2.3270 ha         1 C9J       0.157000
     31 H6           5.7210     0.0200     4.5030 ha         1 C9J       0.161000
     32 H7          -3.7520     0.0010     4.8040 h1         1 C9J       0.054700
     33 H8          -2.4110     0.8820     5.5490 h1         1 C9J       0.054700
     34 H9          -2.4140    -0.8870     5.5460 h1         1 C9J       0.054700
     35 H10         10.5510    -0.8550     5.0200 ho         1 C9J       0.424000
     36 H11         -3.7810     0.0080     2.6100 h4         1 C9J       0.152000
     37 H12         -2.7270     0.0090     0.4390 ha         1 C9J       0.151000
@<TRIPOS>BOND
     1    24    13 1
     2    19    11 1
     3    13    11 ar
     4    13    14 ar
     5    11    10 ar
     6    14     8 ar
     7    10     9 ar
     8     8     9 ar
     9     8     4 1
    10     7     4 1
    11     7    12 2
    12     4     6 1
    13    12     5 1
    14     6     5 2
    15     5     3 1
    16     3    16 ar
    17     3     2 ar
    18    16    15 ar
    19    25    21 2
    20     2     1 ar
    21    15    21 1
    22    15    23 ar
    23    21    17 1
    24     1    23 ar
    25    23    22 1
    26    17    18 1
    27    17    20 1
    28    22    20 2
    29     1    26 1
    30     2    27 1
    31     6    28 1
    32     9    29 1
    33    10    30 1
    34    14    31 1
    35    18    32 1
    36    18    33 1
    37    18    34 1
    38    19    35 1
    39    20    36 1
    40    22    37 1
@<TRIPOS>SUBSTRUCTURE
     1 C9J         1 TEMP              0 ****  ****    0 ROOT
