@<TRIPOS>MOLECULE
C9J
   37    40     1     0     0
SMALL
bcc


@<TRIPOS>ATOM
      1 C4           0.0000     0.0000     0.0000 ca         1 C9J      -0.081000
      2 C5           1.3670     0.0000     0.0000 ca         1 C9J      -0.161300
      3 C6           2.0620     0.0000     1.2170 ca         1 C9J       0.338300
      4 N1           5.6260     0.0010     1.8580 na         1 C9J       0.626300
      5 C7           3.5450     0.0010     1.2060 cc         1 C9J       0.171300
      6 C8           4.3480     0.0010     2.3070 cd         1 C9J      -0.334600
      7 N2           5.5600     0.0010     0.4570 nd         1 C9J      -0.390800
      8 C9           6.7900     0.0070     2.6420 ca         1 C9J      -0.146200
      9 C10          8.0380     0.0050     2.0330 ca         1 C9J      -0.071000
     10 C11          9.1830     0.0110     2.8040 ca         1 C9J      -0.108000
     11 C12          9.0890     0.0170     4.1870 ca         1 C9J       0.106100
     12 N3           4.3190    -0.0000     0.1110 nc         1 C9J      -0.242000
     13 C13          7.8410     0.0190     4.7980 ca         1 C9J       0.096900
     14 C14          6.6940     0.0180     4.0270 ca         1 C9J      -0.127000
     15 C15          0.0980     0.0000     2.4270 ca         1 C9J       0.305800
     16 N4           1.4240     0.0010     2.3760 nb         1 C9J      -0.497000
     17 N           -1.9730    -0.0010     3.7030 n          1 C9J       0.067000
     18 C           -2.6840    -0.0020     4.9840 c3         1 C9J       0.057300
     19 O           10.2180     0.0240     4.9460 oh         1 C9J      -0.483100
     20 C1          -2.6990     0.0040     2.5480 cc         1 C9J      -0.130400
     21 C16         -0.6260    -0.0010     3.7080 c          1 C9J       0.503000
     22 C2          -2.1190     0.0050     1.3350 cd         1 C9J      -0.170200
     23 C3          -0.6610    -0.0010     1.2370 ca         1 C9J      -0.116100
     24 F            7.7490     0.0250     6.1460 f          1 C9J      -0.113900
     25 O1          -0.0140    -0.0010     4.7610 o          1 C9J      -0.653500
     26 H1          -0.5570    -0.0000    -0.9290 ha         1 C9J       0.116000
     27 H2           1.9090    -0.0990    -0.9330 ha         1 C9J       0.133000
     28 H3           4.0260     0.0010     3.3420 h4         1 C9J       0.181000
     29 H4           8.1130     0.0010     0.9520 ha         1 C9J       0.140000
     30 H5          10.1560     0.0100     2.3270 ha         1 C9J       0.125000
     31 H6           5.7210     0.0200     4.5030 ha         1 C9J       0.137000
     32 H7          -3.7520     0.0010     4.8040 h1         1 C9J       0.022033
     33 H8          -2.4110     0.8820     5.5490 h1         1 C9J       0.022033
     34 H9          -2.4140    -0.8870     5.5460 h1         1 C9J       0.022033
     35 H10         10.5510    -0.8550     5.0200 ho         1 C9J       0.409000
     36 H11         -3.7810     0.0080     2.6100 h4         1 C9J       0.124000
     37 H12         -2.7270     0.0090     0.4390 ha         1 C9J       0.124000
@<TRIPOS>BOND
     1     1     2 ar  
     2     1    23 ar  
     3     1    26 1   
     4     2     3 ar  
     5     2    27 1   
     6     3     5 1   
     7     3    16 ar  
     8     4     6 1   
     9     4     7 1   
    10     4     8 1   
    11     5     6 2   
    12     5    12 1   
    13     6    28 1   
    14     7    12 2   
    15     8     9 ar  
    16     8    14 ar  
    17     9    10 ar  
    18     9    29 1   
    19    10    11 ar  
    20    10    30 1   
    21    11    13 ar  
    22    11    19 1   
    23    13    14 ar  
    24    13    24 1   
    25    14    31 1   
    26    15    16 ar  
    27    15    21 1   
    28    15    23 ar  
    29    17    18 1   
    30    17    20 1   
    31    17    21 1   
    32    18    32 1   
    33    18    33 1   
    34    18    34 1   
    35    19    35 1   
    36    20    22 2   
    37    20    36 1   
    38    21    25 2   
    39    22    23 1   
    40    22    37 1   
@<TRIPOS>SUBSTRUCTURE
     1 C9J         1 TEMP              0 ****  ****    0 ROOT
