@<TRIPOS>MOLECULE
molecule
   23    22     1     0     0
SMALL
bcc


@<TRIPOS>ATOM
      1 C1           1.4680     0.0000     0.0000 c3         1 C9K       0.103500
      2 C2           1.9790     0.0000     1.4420 c3         1 C9K       0.125800
      3 C3           1.8610    -1.1680     3.5600 c3         1 C9K       0.161800
      4 N2           1.3930    -1.1350     2.1690 n7         1 C9K      -0.859200
      5 N            0.0000     0.0000     0.0000 nz         1 C9K      -0.800600
      6 C1B          1.9780     1.2490    -0.7200 c3         1 C9K      -0.122100
      7 C4           1.2310    -2.3600     4.2830 c3         1 C9K       0.138400
      8 O            1.7020    -3.5760     3.6970 oh         1 C9K      -0.624800
      9 H1           1.8290    -0.8840    -0.5110 hx         1 C9K       0.114700
     10 H22          1.6920     0.9250     1.9270 h1         1 C9K       0.077200
     11 H21          3.0580    -0.0890     1.4430 h1         1 C9K       0.077200
     12 H31          1.5730    -0.2500     4.0600 h1         1 C9K       0.057200
     13 H32          2.9400    -1.2650     3.5760 h1         1 C9K       0.057200
     14 H2           1.6450    -1.9900     1.7120 hn         1 C9K       0.379800
     15 H4          -0.3340    -0.9090     0.2520 hn         1 C9K       0.457467
     16 H5          -0.3340     0.2360    -0.9130 hn         1 C9K       0.457467
     17 HB3          3.0590     1.2820    -0.6640 hc         1 C9K       0.077367
     18 HB2          1.6710     1.2180    -1.7590 hc         1 C9K       0.077367
     19 HB1          1.5650     2.1320    -0.2480 hc         1 C9K       0.077367
     20 H41          1.5060    -2.3340     5.3300 h1         1 C9K       0.042700
     21 H42          0.1530    -2.3100     4.1920 h1         1 C9K       0.042700
     22 H            1.4510    -4.3040     4.2400 ho         1 C9K       0.425000
     23 HN3         -0.3340     0.6720     0.6630 hn         1 C9K       0.457467
@<TRIPOS>BOND
     1     5     1 1
     2     6     1 1
     3     1     2 1
     4     2     4 1
     5     4     3 1
     6     8     7 1
     7     3     7 1
     8     1     9 1
     9     2    10 1
    10     2    11 1
    11     3    12 1
    12     3    13 1
    13     4    14 1
    14     5    15 1
    15     5    16 1
    16     6    17 1
    17     6    18 1
    18     6    19 1
    19     7    20 1
    20     7    21 1
    21     8    22 1
    22    23     5 1
@<TRIPOS>SUBSTRUCTURE
     1 C9K         1 TEMP              0 ****  ****    0 ROOT
