@<TRIPOS>MOLECULE
molecule
   28    28     1     0     0
SMALL
bcc


@<TRIPOS>ATOM
      1 C2           0.0000     0.0000     0.0000 ca         1 C9M       0.080100
      2 O12         -0.6780     0.0050    -1.1780 oh         1 C9M      -0.503100
      3 C3           1.3860     0.0000     0.0000 ca         1 C9M      -0.132000
      4 C4           2.0790     0.0000     1.1930 ca         1 C9M      -0.144000
      5 C5           1.3840     0.0010     2.4040 ca         1 C9M      -0.028800
      6 C7           2.1240     0.0030     3.6820 ce         1 C9M      -0.114200
      7 C8           3.4500     0.0020     3.6810 c2         1 C9M      -0.154200
      8 C9           4.2060     0.0030     4.9850 c3         1 C9M       0.170600
      9 O10          5.2690    -0.9510     4.9210 os         1 C9M      -0.425600
     10 C11          6.0510    -1.0290     6.1140 c3         1 C9M       0.129700
     11 C6          -0.0120     0.0020     2.4040 ca         1 C9M      -0.200000
     12 C1          -0.7010     0.0020     1.2050 ca         1 C9M       0.126100
     13 O13         -2.0600     0.0030     1.2010 os         1 C9M      -0.312900
     14 C14         -2.7120     0.0040     2.4730 c3         1 C9M       0.125700
     15 H1          -0.5800     0.8460    -1.5930 ho         1 C9M       0.415000
     16 H2           1.9270    -0.0010    -0.9390 ha         1 C9M       0.143000
     17 H3           3.1620    -0.0000     1.1910 ha         1 C9M       0.139000
     18 H4           1.5830     0.0040     4.6210 ha         1 C9M       0.128000
     19 H5           3.9900     0.0000     2.7420 ha         1 C9M       0.142000
     20 H6           4.6160     0.9890     5.1640 h1         1 C9M       0.030200
     21 H7           3.5330    -0.2600     5.7920 h1         1 C9M       0.030200
     22 H8           6.3650    -0.0340     6.4060 h1         1 C9M       0.030033
     23 H9           6.9240    -1.6450     5.9340 h1         1 C9M       0.030033
     24 H10          5.4570    -1.4670     6.9070 h1         1 C9M       0.030033
     25 H11         -0.5550     0.0030     3.3410 ha         1 C9M       0.140000
     26 H12         -3.7860     0.0070     2.3280 h1         1 C9M       0.041367
     27 H13         -2.4200     0.8880     3.0270 h1         1 C9M       0.041367
     28 H14         -2.4240    -0.8810     3.0270 h1         1 C9M       0.041367
@<TRIPOS>BOND
     1     2     1 1
     2    13    14 1
     3    13    12 1
     4     1     3 ar
     5     1    12 ar
     6     3     4 ar
     7    12    11 ar
     8     4     5 ar
     9    11     5 ar
    10     5     6 1
    11     6     7 2
    12     7     8 1
    13     8     9 1
    14     9    10 1
    15     2    15 1
    16     3    16 1
    17     4    17 1
    18     6    18 1
    19     7    19 1
    20     8    20 1
    21     8    21 1
    22    10    22 1
    23    10    23 1
    24    10    24 1
    25    11    25 1
    26    14    26 1
    27    14    27 1
    28    14    28 1
@<TRIPOS>SUBSTRUCTURE
     1 C9M         1 TEMP              0 ****  ****    0 ROOT
