@<TRIPOS>MOLECULE
C9M
   28    28     1     0     0
SMALL
bcc


@<TRIPOS>ATOM
      1 C2          0.0010   -0.8290    0.7270 ca        1 C9M      0.106100
      2 O12        -0.8980   -1.4840   -0.0810 oh        1 C9M     -0.474100
      3 C3          1.3790   -0.8390    0.5050 ca        1 C9M     -0.191000
      4 C4          2.2310   -0.1550    1.3710 ca        1 C9M     -0.116000
      5 C5          1.7220    0.5480    2.4660 ca        1 C9M     -0.058800
      6 C7          2.5810    1.2860    3.3800 ce        1 C9M     -0.109200
      7 C8          3.7810    0.9130    3.8360 c2        1 C9M     -0.191200
      8 C9          4.5000   -0.3390    3.4830 c3        1 C9M      0.152600
      9 O10         5.4570   -0.7010    4.4720 os        1 C9M     -0.418600
     10 C11         4.8760   -1.1630    5.6790 c3        1 C9M      0.112700
     11 C6          0.3330    0.5720    2.6870 ca        1 C9M     -0.167000
     12 C1         -0.5280   -0.1130    1.8330 ca        1 C9M      0.102100
     13 O13        -1.9020   -0.1620    1.9650 os        1 C9M     -0.303900
     14 C14        -2.4470    0.5590    3.0630 c3        1 C9M      0.110700
     15 H1         -0.3960   -1.9140   -0.7880 ho        1 C9M      0.415000
     16 H2          1.7900   -1.3870   -0.3550 ha        1 C9M      0.137000
     17 H3          3.3140   -0.1600    1.1760 ha        1 C9M      0.137000
     18 H4          2.1510    2.2460    3.7230 ha        1 C9M      0.126000
     19 H5          4.3290    1.5650    4.5400 ha        1 C9M      0.136000
     20 H6          3.7840   -1.1870    3.3070 h1        1 C9M      0.059200
     21 H7          5.1280   -0.1800    2.5610 h1        1 C9M      0.059200
     22 H8          4.2320   -0.3710    6.1360 h1        1 C9M      0.034033
     23 H9          5.7480   -1.3910    6.3410 h1        1 C9M      0.034033
     24 H10         4.2710   -2.0850    5.4960 h1        1 C9M      0.034033
     25 H11        -0.0630    1.1350    3.5450 ha        1 C9M      0.142000
     26 H12        -2.0650    0.1550    4.0320 h1        1 C9M      0.044367
     27 H13        -2.2170    1.6490    2.9760 h1        1 C9M      0.044367
     28 H14        -3.5480    0.3800    2.9670 h1        1 C9M      0.044367
@<TRIPOS>BOND
     1    1    2 1   
     2    1    3 ar  
     3    1   12 ar  
     4    2   15 1   
     5    3    4 ar  
     6    3   16 1   
     7    4    5 ar  
     8    4   17 1   
     9    5    6 1   
    10    5   11 ar  
    11    6    7 2   
    12    6   18 1   
    13    7    8 1   
    14    7   19 1   
    15    8    9 1   
    16    8   20 1   
    17    8   21 1   
    18    9   10 1   
    19   10   22 1   
    20   10   23 1   
    21   10   24 1   
    22   11   12 ar  
    23   11   25 1   
    24   12   13 1   
    25   13   14 1   
    26   14   26 1   
    27   14   27 1   
    28   14   28 1   
@<TRIPOS>SUBSTRUCTURE
     1 C9M         1 TEMP              0 ****  ****    0 ROOT
