@<TRIPOS>MOLECULE
C9N
   26    25     1     0     0
SMALL
bcc


@<TRIPOS>ATOM
      1 C1           1.4690     0.0000     0.0000 c3         1 C9N      -0.075500
      2 C2           1.9800     0.0000     1.4420 c3         1 C9N       0.124800
      3 C3           1.6680    -1.0360     3.6090 c3         1 C9N       0.147800
      4 C4           0.7470     0.0130     4.2330 c3         1 C9N       0.221400
      5 N2           1.3940    -1.1350     2.1690 n3         1 C9N      -0.574600
      6 N            0.0000     0.0000     0.0000 nz         1 C9N       0.072400
      7 C1B          1.9790     1.2480    -0.7210 c3         1 C9N      -0.002100
      8 CN           1.8760    -2.4120     1.6270 c3         1 C9N       0.174100
      9 O           -0.6100    -0.4270     4.1360 oh         1 C9N      -0.600800
     10 H1           1.8300    -0.8850    -0.5110 hx         1 C9N       0.092700
     11 H2           3.0590    -0.0890     1.4430 h1         1 C9N       0.050700
     12 H3           1.6930     0.9260     1.9270 h1         1 C9N       0.050700
     13 H31          2.7010    -0.7450     3.7610 h1         1 C9N       0.036700
     14 H32          1.4910    -1.9970     4.0770 h1         1 C9N       0.036700
     15 H5          -0.3340     0.0120    -0.9440 hn         1 C9N       0.230467
     16 H6          -0.3340     0.8110     0.4820 hn         1 C9N       0.230467
     17 HB3          1.6040     2.1330    -0.2210 hc         1 C9N       0.037367
     18 HB2          1.6320     1.2390    -1.7480 hc         1 C9N       0.037367
     19 HB1          3.0620     1.2570    -0.7070 hc         1 C9N       0.037367
     20 HN2          1.8080    -3.1770     2.3910 h1         1 C9N       0.014700
     21 HN1          2.9080    -2.3050     1.3140 h1         1 C9N       0.014700
     22 HN3          1.2690    -2.6960     0.7760 h1         1 C9N       0.014700
     23 H           -1.1130    -0.0520     4.8400 ho         1 C9N       0.408000
     24 H42          1.0090     0.1500     5.2750 h1         1 C9N      -0.004300
     25 H4           0.8600     0.9530     3.7060 h1         1 C9N      -0.004300
     26 HN31        -0.3340    -0.8100     0.4830 hn         1 C9N       0.230467
@<TRIPOS>BOND
     1     1     2 1   
     2     1     6 1   
     3     1     7 1   
     4     1    10 1   
     5     2     5 1   
     6     2    11 1   
     7     2    12 1   
     8     3     4 1   
     9     3     5 1   
    10     3    13 1   
    11     3    14 1   
    12     4     9 1   
    13     4    24 1   
    14     4    25 1   
    15     5     8 1   
    16     6    15 1   
    17     6    16 1   
    18     6    26 1   
    19     7    17 1   
    20     7    18 1   
    21     7    19 1   
    22     8    20 1   
    23     8    21 1   
    24     8    22 1   
    25     9    23 1   
@<TRIPOS>SUBSTRUCTURE
     1 C9N         1 TEMP              0 ****  ****    0 ROOT
