@<TRIPOS>MOLECULE
molecule
   26    25     1     0     0
SMALL
bcc


@<TRIPOS>ATOM
      1 C1           1.4690     0.0000     0.0000 c3         1 C9N       0.106500
      2 C2           1.9800     0.0000     1.4420 c3         1 C9N       0.127800
      3 C3           1.6680    -1.0360     3.6090 c3         1 C9N       0.159800
      4 C4           0.7470     0.0130     4.2330 c3         1 C9N       0.139400
      5 N2           1.3940    -1.1350     2.1690 n3         1 C9N      -0.760600
      6 N            0.0000     0.0000     0.0000 nz         1 C9N      -0.802600
      7 C1B          1.9790     1.2480    -0.7210 c3         1 C9N      -0.123100
      8 CN           1.8760    -2.4120     1.6270 c3         1 C9N       0.136100
      9 O           -0.6100    -0.4270     4.1360 oh         1 C9N      -0.613800
     10 H1           1.8300    -0.8850    -0.5110 hx         1 C9N       0.114700
     11 H2           3.0590    -0.0890     1.4430 h1         1 C9N       0.076200
     12 H3           1.6930     0.9260     1.9270 h1         1 C9N       0.076200
     13 H31          2.7010    -0.7450     3.7610 h1         1 C9N       0.066200
     14 H32          1.4910    -1.9970     4.0770 h1         1 C9N       0.066200
     15 H5          -0.3340     0.0120    -0.9440 hn         1 C9N       0.459133
     16 H6          -0.3340     0.8110     0.4820 hn         1 C9N       0.459133
     17 HB3          1.6040     2.1330    -0.2210 hc         1 C9N       0.075367
     18 HB2          1.6320     1.2390    -1.7480 hc         1 C9N       0.075367
     19 HB1          3.0620     1.2570    -0.7070 hc         1 C9N       0.075367
     20 HN2          1.8080    -3.1770     2.3910 h1         1 C9N       0.047033
     21 HN1          2.9080    -2.3050     1.3140 h1         1 C9N       0.047033
     22 HN3          1.2690    -2.6960     0.7760 h1         1 C9N       0.047033
     23 H           -1.1130    -0.0520     4.8400 ho         1 C9N       0.418000
     24 H42          1.0090     0.1500     5.2750 h1         1 C9N       0.033200
     25 H4           0.8600     0.9530     3.7060 h1         1 C9N       0.033200
     26 HN31        -0.3340    -0.8100     0.4830 hn         1 C9N       0.459133
@<TRIPOS>BOND
     1     6     1 1
     2     7     1 1
     3     1     2 1
     4     2     5 1
     5     8     5 1
     6     5     3 1
     7     3     4 1
     8     4     9 1
     9     1    10 1
    10     2    11 1
    11     2    12 1
    12     3    13 1
    13     3    14 1
    14     6    15 1
    15     6    16 1
    16     7    17 1
    17     7    18 1
    18     7    19 1
    19     8    20 1
    20     8    21 1
    21     8    22 1
    22     9    23 1
    23     4    24 1
    24     4    25 1
    25    26     6 1
@<TRIPOS>SUBSTRUCTURE
     1 C9N         1 TEMP              0 ****  ****    0 ROOT
