@<TRIPOS>MOLECULE
molecule
   35    37     1     0     0
SMALL
bcc


@<TRIPOS>ATOM
      1 C1           0.0000     0.0000     0.0000 ca         1 C9Q      -0.278300
      2 C2           1.3940     0.0000     0.0000 cp         1 C9Q       0.053000
      3 C3           2.0540     0.0000     1.2490 ca         1 C9Q      -0.224100
      4 C7           5.8110    -0.0030     5.9640 c3         1 C9Q       0.111000
      5 C8           5.4350    -0.0040     7.4480 c3         1 C9Q      -0.113100
      6 C9           1.2860    -0.0010     2.4290 ca         1 C9Q       0.478800
      7 C10         -0.6770     0.0040     1.2070 ca         1 C9Q       0.461200
      8 C11          2.1580    -0.0010    -1.2690 cp         1 C9Q      -0.039000
      9 C12          3.1870     0.9200    -1.4660 ca         1 C9Q      -0.103000
     10 C13          3.8960     0.9150    -2.6510 ca         1 C9Q       0.027400
     11 C14          3.5860    -0.0010    -3.6410 ca         1 C9Q      -0.116000
     12 C15          2.5660    -0.9160    -3.4510 ca         1 C9Q      -0.122000
     13 C16          1.8550    -0.9240    -2.2680 ca         1 C9Q      -0.111000
     14 C4           3.4120    -0.0000     1.6330 cc         1 C9Q      -0.099200
     15 C5           3.4550    -0.0000     2.9920 cd         1 C9Q      -0.129300
     16 Cl1          5.1770     2.0600    -2.8990 cl         1 C9Q      -0.104400
     17 C6           4.6780    -0.0010     3.8070 c          1 C9Q       0.693300
     18 O1           5.7680    -0.0000     3.2680 o          1 C9Q      -0.587100
     19 N2           2.1630    -0.0000     3.4850 na         1 C9Q      -0.274100
     20 N1           4.5920    -0.0030     5.1530 ns         1 C9Q      -0.587900
     21 N3          -0.0400    -0.0020     2.3590 nb         1 C9Q      -0.719000
     22 H1          -0.5470     0.0050    -0.9350 ha         1 C9Q       0.145000
     23 H2           6.3950    -0.8870     5.7390 h1         1 C9Q       0.056700
     24 H3           6.3940     0.8820     5.7400 h1         1 C9Q       0.056700
     25 H4           4.8570    -0.8920     7.6730 hc         1 C9Q       0.043700
     26 H5           4.8460     0.8770     7.6720 hc         1 C9Q       0.043700
     27 H6           6.3370     0.0020     8.0480 hc         1 C9Q       0.043700
     28 H7          -1.7610     0.0040     1.2040 h4         1 C9Q       0.027100
     29 H8           3.4300     1.6370    -0.6910 ha         1 C9Q       0.156000
     30 H9           4.1430     0.0000    -4.5710 ha         1 C9Q       0.145000
     31 H10          2.3300    -1.6320    -4.2290 ha         1 C9Q       0.139000
     32 H11          1.0570    -1.6410    -2.1200 ha         1 C9Q       0.139000
     33 H12          4.2620    -0.1090     0.9700 ha         1 C9Q       0.178000
     34 H13          1.9080    -0.0000     4.4530 hn         1 C9Q       0.303700
     35 H14          3.6950    -0.0300     5.5970 hn         1 C9Q       0.307500
@<TRIPOS>BOND
     1     5     4 1
     2     4    20 1
     3    20    17 1
     4    18    17 2
     5    17    15 1
     6    16    10 1
     7    15    19 1
     8    15    14 2
     9    19     6 1
    10    14     3 1
    11    10     9 ar
    12    10    11 ar
    13     9     8 ar
    14     6     3 ar
    15     6    21 ar
    16     3     2 ar
    17    21     7 ar
    18     2     8 1
    19     2     1 ar
    20    11    12 ar
    21     8    13 ar
    22     7     1 ar
    23    12    13 ar
    24     1    22 1
    25     4    23 1
    26     4    24 1
    27     5    25 1
    28     5    26 1
    29     5    27 1
    30     7    28 1
    31     9    29 1
    32    11    30 1
    33    12    31 1
    34    13    32 1
    35    14    33 1
    36    19    34 1
    37    20    35 1
@<TRIPOS>SUBSTRUCTURE
     1 C9Q         1 TEMP              0 ****  ****    0 ROOT
