@<TRIPOS>MOLECULE
C9Q
   35    37     1     0     0
SMALL
bcc


@<TRIPOS>ATOM
      1 C1           0.0000     0.0000     0.0000 ca         1 C9Q      -0.250300
      2 C2           1.3940     0.0000     0.0000 cp         1 C9Q       0.065000
      3 C3           2.0540     0.0000     1.2490 ca         1 C9Q      -0.227100
      4 C7           5.8110    -0.0030     5.9640 c3         1 C9Q       0.054000
      5 C8           5.4350    -0.0040     7.4480 c3         1 C9Q      -0.008100
      6 C9           1.2860    -0.0010     2.4290 ca         1 C9Q       0.238800
      7 C10         -0.6770     0.0040     1.2070 ca         1 C9Q       0.429200
      8 C11          2.1580    -0.0010    -1.2690 cp         1 C9Q      -0.034000
      9 C12          3.1870     0.9200    -1.4660 ca         1 C9Q      -0.085000
     10 C13          3.8960     0.9150    -2.6510 ca         1 C9Q      -0.034600
     11 C14          3.5860    -0.0010    -3.6410 ca         1 C9Q      -0.095000
     12 C15          2.5660    -0.9160    -3.4510 ca         1 C9Q      -0.092000
     13 C16          1.8550    -0.9240    -2.2680 ca         1 C9Q      -0.088000
     14 C4           3.4120    -0.0000     1.6330 cc         1 C9Q      -0.059200
     15 C5           3.4550    -0.0000     2.9920 cd         1 C9Q      -0.335300
     16 Cl1          5.1770     2.0600    -2.8990 cl         1 C9Q      -0.022400
     17 C6           4.6780    -0.0010     3.8070 c          1 C9Q       0.624300
     18 O1           5.7680    -0.0000     3.2680 o          1 C9Q      -0.630100
     19 N2           2.1630    -0.0000     3.4850 na         1 C9Q       0.271900
     20 N1           4.5920    -0.0030     5.1530 ns         1 C9Q      -0.208900
     21 N3          -0.0400    -0.0020     2.3590 nb         1 C9Q      -0.586000
     22 H1          -0.5470     0.0050    -0.9350 ha         1 C9Q       0.121000
     23 H2           6.3950    -0.8870     5.7390 h1         1 C9Q       0.027200
     24 H3           6.3940     0.8820     5.7400 h1         1 C9Q       0.027200
     25 H4           4.8570    -0.8920     7.6730 hc         1 C9Q       0.008367
     26 H5           4.8460     0.8770     7.6720 hc         1 C9Q       0.008367
     27 H6           6.3370     0.0020     8.0480 hc         1 C9Q       0.008367
     28 H7          -1.7610     0.0040     1.2040 h4         1 C9Q      -0.021900
     29 H8           3.4300     1.6370    -0.6910 ha         1 C9Q       0.127000
     30 H9           4.1430     0.0000    -4.5710 ha         1 C9Q       0.114000
     31 H10          2.3300    -1.6320    -4.2290 ha         1 C9Q       0.107000
     32 H11          1.0570    -1.6410    -2.1200 ha         1 C9Q       0.111000
     33 H12          4.2620    -0.1090     0.9700 ha         1 C9Q       0.150000
     34 H13          1.9080    -0.0000     4.4530 hn         1 C9Q       0.117700
     35 H14          3.6950    -0.0300     5.5970 hn         1 C9Q       0.166500
@<TRIPOS>BOND
     1     1     2 ar  
     2     1     7 ar  
     3     1    22 1   
     4     2     3 ar  
     5     2     8 1   
     6     3     6 ar  
     7     3    14 1   
     8     4     5 1   
     9     4    20 1   
    10     4    23 1   
    11     4    24 1   
    12     5    25 1   
    13     5    26 1   
    14     5    27 1   
    15     6    19 1   
    16     6    21 ar  
    17     7    21 ar  
    18     7    28 1   
    19     8     9 ar  
    20     8    13 ar  
    21     9    10 ar  
    22     9    29 1   
    23    10    11 ar  
    24    10    16 1   
    25    11    12 ar  
    26    11    30 1   
    27    12    13 ar  
    28    12    31 1   
    29    13    32 1   
    30    14    15 2   
    31    14    33 1   
    32    15    17 1   
    33    15    19 1   
    34    17    18 2   
    35    17    20 1   
    36    19    34 1   
    37    20    35 1   
@<TRIPOS>SUBSTRUCTURE
     1 C9Q         1 TEMP              0 ****  ****    0 ROOT
