@<TRIPOS>MOLECULE
molecule
   28    27     1     0     0
SMALL
bcc


@<TRIPOS>ATOM
      1 C1           0.0000     0.0000     0.0000 c3         1 C9T      -0.092100
      2 C2           1.5290     0.0000     0.0000 c3         1 C9T      -0.085400
      3 C3           2.0390     0.0000     1.4430 c3         1 C9T      -0.083400
      4 C4           3.5700    -0.0000     1.4440 c3         1 C9T      -0.081400
      5 C5           4.0790    -0.0010     2.8860 c3         1 C9T      -0.089400
      6 C6           5.6090    -0.0010     2.8860 c3         1 C9T      -0.058400
      7 C7           6.1190    -0.0010     4.3290 c3         1 C9T      -0.174700
      8 C7B          5.7140    -1.3090     5.0120 c3         1 C9T      -0.071100
      9 C            7.6210     0.1230     4.3310 c          1 C9T       0.895600
     10 O            8.2220     0.2040     3.2860 o          1 C9T      -0.854800
     11 H11         -0.3610    -0.8840     0.5110 hc         1 C9T       0.026367
     12 H13         -0.3610    -0.0010    -1.0210 hc         1 C9T       0.026367
     13 H12         -0.3610     0.8850     0.5100 hc         1 C9T       0.026367
     14 H21          1.8900     0.8850    -0.5110 hc         1 C9T       0.037700
     15 H22          1.8900    -0.8850    -0.5110 hc         1 C9T       0.037700
     16 H32          1.6780     0.8840     1.9540 hc         1 C9T       0.035700
     17 H31          1.6780    -0.8840     1.9540 hc         1 C9T       0.035700
     18 H41          3.9310    -0.8840     0.9320 hc         1 C9T       0.037700
     19 H42          3.9310     0.8850     0.9340 hc         1 C9T       0.037700
     20 H52          3.7180    -0.8860     3.3960 hc         1 C9T       0.031200
     21 H51          3.7180     0.8830     3.3970 hc         1 C9T       0.031200
     22 H61          5.9700     0.8840     2.3760 hc         1 C9T       0.045200
     23 H62          5.9700    -0.8850     2.3750 hc         1 C9T       0.045200
     24 H7           5.6870     0.8350     4.8650 hc         1 C9T       0.037700
     25 HB2          4.7670    -1.1740     5.5200 hc         1 C9T       0.019367
     26 HB1          6.4730    -1.5900     5.7330 hc         1 C9T       0.019367
     27 HB3          5.6160    -2.0900     4.2680 hc         1 C9T       0.019367
     28 O1           8.2910     0.1440     5.4940 o          1 C9T      -0.854800
@<TRIPOS>BOND
     1     2     1 1
     2     2     3 1
     3     6     5 1
     4     6     7 1
     5     9    10 1
     6     9     7 1
     7     7     8 1
     8     5     4 1
     9     4     3 1
    10     1    11 1
    11     1    12 1
    12     1    13 1
    13     2    14 1
    14     2    15 1
    15     3    16 1
    16     3    17 1
    17     4    18 1
    18     4    19 1
    19     5    20 1
    20     5    21 1
    21     6    22 1
    22     6    23 1
    23     7    24 1
    24     8    25 1
    25     8    26 1
    26     8    27 1
    27     9    28 1
@<TRIPOS>SUBSTRUCTURE
     1 C9T         1 TEMP              0 ****  ****    0 ROOT
