@<TRIPOS>MOLECULE
C9Y
   39    42     1     0     0
SMALL
bcc


@<TRIPOS>ATOM
      1 O3           0.0000     0.0000     0.0000 o          1 C9Y      -0.654500
      2 C4           3.5830     0.0000     0.0000 ca         1 C9Y      -0.074100
      3 C5           4.6800     0.0000     0.8720 ca         1 C9Y      -0.108000
      4 C6           4.4350     0.0010     2.2170 ca         1 C9Y      -0.169300
      5 N1           1.8410     0.0040     6.0710 na         1 C9Y       0.606300
      6 C7           3.1110     0.0020     2.6810 ca         1 C9Y       0.290300
      7 C8           2.8560     0.0030     4.1410 cc         1 C9Y       0.203300
      8 N2           3.2300    -0.0000     6.2580 nd         1 C9Y      -0.406800
      9 C9           1.6290     0.0040     4.7340 cd         1 C9Y      -0.341600
     10 C10          0.8590     0.0040     7.0760 ca         1 C9Y      -0.126200
     11 C11         -0.4860     0.0040     6.7320 ca         1 C9Y      -0.102000
     12 C12         -1.4510     0.0030     7.7190 ca         1 C9Y      -0.101000
     13 N3           3.7930     0.0010     5.1000 nc         1 C9Y      -0.249000
     14 C13         -1.0780     0.0040     9.0550 ca         1 C9Y       0.092100
     15 C14          0.2670     0.0050     9.4000 ca         1 C9Y       0.086900
     16 C15          1.2340    -0.0010     8.4110 ca         1 C9Y      -0.108000
     17 N4           2.0880     0.0020     1.8450 nb         1 C9Y      -0.485000
     18 N            1.3930    -0.0030    -1.7360 n          1 C9Y       0.151000
     19 C           -0.1270     1.4150    -2.9870 c          1 C9Y       0.971600
     20 C1           0.2610    -0.0050    -2.6660 c3         1 C9Y      -0.122000
     21 C16          2.2750     0.0000     0.5310 ca         1 C9Y       0.293800
     22 C17          1.1460    -0.0010    -0.4110 c          1 C9Y       0.505000
     23 C2           2.6610    -0.0080    -2.2410 cc         1 C9Y      -0.067400
     24 C3           3.7490    -0.0070    -1.4530 cd         1 C9Y      -0.254200
     25 F            0.6310     0.0050    10.7010 f          1 C9Y      -0.119900
     26 O4          -2.0300     0.0030    10.0260 oh         1 C9Y      -0.487100
     27 H1           5.6940    -0.0000     0.4910 ha         1 C9Y       0.108000
     28 H2           5.2550     0.1020     2.9170 ha         1 C9Y       0.120000
     29 H3           0.6690     0.0070     4.2320 h4         1 C9Y       0.184000
     30 H4          -0.7780     0.0030     5.6890 ha         1 C9Y       0.131000
     31 H5          -2.5000     0.0020     7.4500 ha         1 C9Y       0.123000
     32 H6           2.2840     0.0000     8.6800 ha         1 C9Y       0.151000
     33 H10          0.5440    -0.5170    -3.5780 h1         1 C9Y       0.038700
     34 H11         -0.5790    -0.5150    -2.2110 h1         1 C9Y       0.038700
     35 H12          2.7940    -0.0120    -3.3160 h4         1 C9Y       0.121000
     36 H13          4.7400    -0.0100    -1.8900 ha         1 C9Y       0.115000
     37 H14         -2.3370     0.8830    10.1660 ho         1 C9Y       0.405000
     38 O1          -1.1470     1.6590    -3.8260 o          1 C9Y      -0.880800
     39 O2           0.4800     2.3340    -2.4910 o          1 C9Y      -0.880800
@<TRIPOS>BOND
     1     1    22 2   
     2     2     3 ar  
     3     2    21 ar  
     4     2    24 1   
     5     3     4 ar  
     6     3    27 1   
     7     4     6 ar  
     8     4    28 1   
     9     5     8 1   
    10     5     9 1   
    11     5    10 1   
    12     6     7 1   
    13     6    17 ar  
    14     7     9 2   
    15     7    13 1   
    16     8    13 2   
    17     9    29 1   
    18    10    11 ar  
    19    10    16 ar  
    20    11    12 ar  
    21    11    30 1   
    22    12    14 ar  
    23    12    31 1   
    24    14    15 ar  
    25    14    26 1   
    26    15    16 ar  
    27    15    25 1   
    28    16    32 1   
    29    17    21 ar  
    30    18    20 1   
    31    18    22 1   
    32    18    23 1   
    33    19    20 1   
    34    19    38 1   
    35    19    39 1   
    36    20    33 1   
    37    20    34 1   
    38    21    22 1   
    39    23    24 2   
    40    23    35 1   
    41    24    36 1   
    42    26    37 1   
@<TRIPOS>SUBSTRUCTURE
     1 C9Y         1 TEMP              0 ****  ****    0 ROOT
