@<TRIPOS>MOLECULE
molecule
   41    43     1     0     0
SMALL
bcc


@<TRIPOS>ATOM
      1 N1           0.0000     0.0000     0.0000 nb         1 CA0      -0.839000
      2 C2           1.3210     0.0000     0.0000 ca         1 CA0       0.735900
      3 N3           2.0270     0.0000     1.1110 nb         1 CA0      -0.780000
      4 C4           1.4260     0.0010     2.2960 ca         1 CA0       0.478800
      5 C5           0.0210     0.0010     2.3500 ca         1 CA0      -0.213200
      6 C6          -0.6880     0.0000     1.1370 ca         1 CA0       0.785200
      7 N6          -2.0730     0.0010     1.1260 nv         1 CA0      -0.987500
      8 N7          -0.3290     0.0020     3.6580 nc         1 CA0      -0.597100
      9 C8           0.7460     0.0020     4.3940 cd         1 CA0       0.431700
     10 N9           1.8540     0.0010     3.5990 na         1 CA0      -0.249000
     11 PA           3.9990    -1.0000     9.7440 p5         1 CA0       1.269800
     12 CB           3.3590    -2.7270    11.4710 c          1 CA0       0.614100
     13 C1'          3.2460     0.0010     4.0550 c3         1 CA0       0.257800
     14 O1A          5.3430    -0.5140    10.4830 o          1 CA0      -0.735000
     15 O1B          3.3430    -1.7970    12.2520 o          1 CA0      -0.381000
     16 C2'          3.7880     1.4490     4.1560 c3         1 CA0       0.093100
     17 O2'          4.3020     1.8910     2.8980 oh         1 CA0      -0.559800
     18 O2A          2.8750    -0.1170    10.1320 o          1 CA0      -0.735000
     19 N2B          3.0530    -3.9690    11.8950 nz         1 CA0      -0.662400
     20 C3'          4.9240     1.2990     5.1960 c3         1 CA0       0.087100
     21 O3'          6.1890     1.1770     4.5410 oh         1 CA0      -0.573800
     22 O3A          3.6650    -2.5140    10.1770 os         1 CA0      -0.482500
     23 C4'          4.5770     0.0010     5.9500 c3         1 CA0       0.117100
     24 O4'          3.3380    -0.4920     5.4090 os         1 CA0      -0.404600
     25 C5'          4.4150     0.2940     7.4430 c3         1 CA0       0.228400
     26 O5'          4.2090    -0.9310     8.1490 os         1 CA0      -0.591200
     27 H2           1.8420    -0.0000    -0.9490 h5         1 CA0       0.060100
     28 HN6         -2.5800     0.0010     1.9890 hn         1 CA0       0.448300
     29 HN6A        -2.5670     0.0010     0.2560 hn         1 CA0       0.448300
     30 H8           0.7570     0.0010     5.4770 h5         1 CA0       0.093800
     31 H1'          3.8680    -0.5900     3.3940 h2         1 CA0       0.111700
     32 H2'          3.0200     2.1200     4.5230 h1         1 CA0       0.059700
     33 HO2'         4.1700     2.8200     2.8130 ho         1 CA0       0.404000
     34 HN2B         2.7830    -4.5320    11.1120 hn         1 CA0       0.474800
     35 HN2A         2.2960    -3.9220    12.5480 hn         1 CA0       0.474800
     36 H3'          4.9240     2.1410     5.8780 h1         1 CA0       0.052700
     37 HO3'         6.7810     1.8310     4.8760 ho         1 CA0       0.406000
     38 H4'          5.3610    -0.7320     5.7970 h1         1 CA0       0.085700
     39 H5'          3.5620     0.9450     7.5930 h1         1 CA0       0.048700
     40 H5'A         5.3090     0.7780     7.8160 h1         1 CA0       0.048700
     41 H2B3         3.8520    -4.3760    12.3380 hn         1 CA0       0.474800
@<TRIPOS>BOND
     1     2     1 ar
     2     6     1 ar
     3     3     2 ar
     4     2    27 1
     5     4     3 ar
     6    10     4 1
     7     4     5 ar
     8     8     5 1
     9     5     6 ar
    10     6     7 1
    11     7    28 1
    12     7    29 1
    13     9     8 2
    14    10     9 1
    15     9    30 1
    16    13    10 1
    17    18    11 1
    18    14    11 1
    19    11    22 1
    20    11    26 1
    21    19    12 1
    22    15    12 2
    23    12    22 1
    24    24    13 1
    25    16    13 1
    26    13    31 1
    27    17    16 1
    28    20    16 1
    29    16    32 1
    30    17    33 1
    31    19    34 1
    32    19    35 1
    33    21    20 1
    34    23    20 1
    35    20    36 1
    36    21    37 1
    37    23    25 1
    38    23    24 1
    39    23    38 1
    40    26    25 1
    41    25    39 1
    42    25    40 1
    43    41    19 1
@<TRIPOS>SUBSTRUCTURE
     1 CA0         1 TEMP              0 ****  ****    0 ROOT
