@<TRIPOS>MOLECULE
CA1
   17    16     1     0     0
SMALL
bcc


@<TRIPOS>ATOM
      1 CX5         0.1540    0.3500   -0.0220 c3        1 CA1     -0.094100
      2 CX6         1.5090   -0.2960    0.1050 c3        1 CA1     -0.127400
      3 CX7         1.9510   -0.3530    1.5350 c         1 CA1      0.630100
      4 OX8         1.2940   -0.6320    2.5390 o         1 CA1     -0.544000
      5 OX9         3.2790   -0.0640    1.6890 os        1 CA1     -0.445900
      6 CJ1         3.7990   -0.1180    3.0290 c3        1 CA1      0.138400
      7 CJ2         5.2640    0.2330    2.9290 c3        1 CA1     -0.100100
      8 H1          0.2040    1.4310    0.2550 hc        1 CA1      0.048367
      9 HX51       -0.5840   -0.1510    0.6510 hc        1 CA1      0.048367
     10 HX52       -0.2050    0.2700   -1.0760 hc        1 CA1      0.048367
     11 H2          1.4740   -1.3540   -0.2720 hc        1 CA1      0.076700
     12 H3          2.2720    0.2590   -0.5020 hc        1 CA1      0.076700
     13 H4          3.2340    0.6140    3.6630 h1        1 CA1      0.051200
     14 H5          3.6410   -1.1510    3.4340 h1        1 CA1      0.051200
     15 H6          5.7140    0.2050    3.9500 hc        1 CA1      0.047367
     16 H7          5.7980   -0.4950    2.2730 hc        1 CA1      0.047367
     17 H8          5.3940    1.2540    2.4990 hc        1 CA1      0.047367
@<TRIPOS>BOND
     1    1    2 1   
     2    1    8 1   
     3    1    9 1   
     4    1   10 1   
     5    2    3 1   
     6    2   11 1   
     7    2   12 1   
     8    3    4 2   
     9    3    5 1   
    10    5    6 1   
    11    6    7 1   
    12    6   13 1   
    13    6   14 1   
    14    7   15 1   
    15    7   16 1   
    16    7   17 1   
@<TRIPOS>SUBSTRUCTURE
     1 CA1         1 TEMP              0 ****  ****    0 ROOT
