@<TRIPOS>MOLECULE
molecule
   17    16     1     0     0
SMALL
bcc


@<TRIPOS>ATOM
      1 CX5          0.0000     0.0000     0.0000 c3         1 CA1      -0.082100
      2 CX6          1.5300     0.0000     0.0000 c3         1 CA1      -0.126400
      3 CX7          2.0320     0.0000     1.4210 c          1 CA1       0.635100
      4 OX8          1.2470    -0.0000     2.3400 o          1 CA1      -0.552000
      5 OX9          3.3520     0.0010     1.6670 os         1 CA1      -0.445900
      6 CJ1          3.8360    -0.0000     3.0350 c3         1 CA1       0.153400
      7 CJ2          5.3660     0.0010     3.0360 c3         1 CA1      -0.096100
      8 H1          -0.3610     0.8840     0.5110 hc         1 CA1       0.046367
      9 HX51        -0.3610     0.0000    -1.0210 hc         1 CA1       0.046367
     10 HX52        -0.3610    -0.8850     0.5110 hc         1 CA1       0.046367
     11 H2           1.8910    -0.8850    -0.5110 hc         1 CA1       0.069700
     12 H3           1.8910     0.8850    -0.5110 hc         1 CA1       0.069700
     13 H4           3.4740     0.8830     3.5470 h1         1 CA1       0.046700
     14 H5           3.4750    -0.8860     3.5450 h1         1 CA1       0.046700
     15 H6           5.7260    -0.0000     4.0570 hc         1 CA1       0.047367
     16 H7           5.7280    -0.8830     2.5250 hc         1 CA1       0.047367
     17 H8           5.7260     0.8860     2.5260 hc         1 CA1       0.047367
@<TRIPOS>BOND
     1     1     2 1
     2     1     8 1
     3     1     9 1
     4     1    10 1
     5     2     3 1
     6     2    11 1
     7     2    12 1
     8     3     4 2
     9     3     5 1
    10     5     6 1
    11     6     7 1
    12     6    13 1
    13     6    14 1
    14     7    15 1
    15     7    16 1
    16     7    17 1
@<TRIPOS>SUBSTRUCTURE
     1 CA1         1 TEMP              0 ****  ****    0 ROOT
