@<TRIPOS>MOLECULE
molecule
   43    44     1     0     0
SMALL
bcc


@<TRIPOS>ATOM
      1 O2           0.0000     0.0000     0.0000 o          1 CA2      -0.833300
      2 C7           1.2080     0.0000     0.0000 c          1 CA2       0.867600
      3 O1           1.8800     0.0000    -1.1620 o          1 CA2      -0.833300
      4 C1           1.9620     0.0000     1.3050 c3         1 CA2       0.049800
      5 O3           3.1560    -0.7730     1.1660 oh         1 CA2      -0.630800
      6 C2           1.0840    -0.6110     2.4010 c3         1 CA2      -0.076400
      7 C3           1.8480    -0.6110     3.7260 c3         1 CA2      -0.069700
      8 C4           2.2120     0.8270     4.1050 c3         1 CA2       0.153100
      9 O4           2.9260     0.8260     5.3420 oh         1 CA2      -0.619800
     10 C5           3.0890     1.4370     3.0100 c3         1 CA2       0.124100
     11 O5           3.4290     2.7780     3.3630 oh         1 CA2      -0.628800
     12 C6           2.3250     1.4360     1.6840 c3         1 CA2      -0.074400
     13 C8           0.9710    -1.2210     4.8210 c3         1 CA2      -0.075400
     14 C9           0.7230    -2.6980     4.5110 c3         1 CA2      -0.085400
     15 C10         -0.0430    -3.3410     5.6690 c3         1 CA2       0.110400
     16 O11         -0.2740    -4.7210     5.3810 os         1 CA2      -0.293900
     17 C12         -0.9550    -5.2350     6.4390 ca         1 CA2       0.133100
     18 C17         -1.3240    -6.5720     6.4440 ca         1 CA2      -0.193000
     19 C16         -2.0150    -7.0920     7.5220 ca         1 CA2      -0.096000
     20 C15         -2.3390    -6.2810     8.5940 ca         1 CA2      -0.176000
     21 C14         -1.9720    -4.9480     8.5910 ca         1 CA2      -0.096000
     22 C13         -1.2750    -4.4240     7.5190 ca         1 CA2      -0.193000
     23 H3           3.0650    -1.3620     0.4360 ho         1 CA2       0.419000
     24 H2C1         0.1800    -0.0230     2.5070 hc         1 CA2       0.054700
     25 H2C2         0.8300    -1.6290     2.1320 hc         1 CA2       0.054700
     26 HA           2.7550    -1.1940     3.6170 hc         1 CA2       0.073700
     27 H4           1.3060     1.4120     4.2060 h1         1 CA2       0.035700
     28 HB           2.6270     1.5410     5.8790 ho         1 CA2       0.393000
     29 H5           3.9920     0.8470     2.9030 h1         1 CA2       0.057700
     30 HC           4.3290     2.9450     3.1380 ho         1 CA2       0.395000
     31 H6C1         2.9480     1.8660     0.9090 hc         1 CA2       0.059200
     32 H6C2         1.4190     2.0200     1.7910 hc         1 CA2       0.059200
     33 H8C1         0.0250    -0.6960     4.8590 hc         1 CA2       0.037200
     34 H8C2         1.4730    -1.1310     5.7760 hc         1 CA2       0.037200
     35 H9C1         0.1410    -2.7840     3.6020 hc         1 CA2       0.063200
     36 H9C2         1.6730    -3.2040     4.3820 hc         1 CA2       0.063200
     37 H101        -0.9920    -2.8350     5.7990 h1         1 CA2       0.037200
     38 H102         0.5390    -3.2550     6.5790 h1         1 CA2       0.037200
     39 H17         -1.0710    -7.2080     5.6050 ha         1 CA2       0.144500
     40 H16         -2.3030    -8.1370     7.5260 ha         1 CA2       0.124500
     41 H15         -2.8830    -6.6900     9.4360 ha         1 CA2       0.121000
     42 H14         -2.2250    -4.3150     9.4330 ha         1 CA2       0.124500
     43 H13         -0.9880    -3.3790     7.5160 ha         1 CA2       0.144500
@<TRIPOS>BOND
     1     1     2 1
     2     2     3 1
     3     2     4 1
     4     4     5 1
     5     4     6 1
     6     4    12 1
     7     5    23 1
     8     6     7 1
     9     6    24 1
    10     6    25 1
    11     7     8 1
    12     7    13 1
    13     7    26 1
    14     8     9 1
    15     8    10 1
    16     8    27 1
    17     9    28 1
    18    10    11 1
    19    10    12 1
    20    10    29 1
    21    11    30 1
    22    12    31 1
    23    12    32 1
    24    13    14 1
    25    13    33 1
    26    13    34 1
    27    14    15 1
    28    14    35 1
    29    14    36 1
    30    15    16 1
    31    15    37 1
    32    15    38 1
    33    16    17 1
    34    17    18 ar
    35    17    22 ar
    36    18    19 ar
    37    18    39 1
    38    19    20 ar
    39    19    40 1
    40    20    21 ar
    41    20    41 1
    42    21    22 ar
    43    21    42 1
    44    22    43 1
@<TRIPOS>SUBSTRUCTURE
     1 CA2         1 TEMP              0 ****  ****    0 ROOT
