@<TRIPOS>MOLECULE
CA2
   43    44     1     0     0
SMALL
bcc


@<TRIPOS>ATOM
      1 O2          0.1350    1.0320    0.0300 o         1 CA2     -0.824300
      2 C7          1.0920    0.2170   -0.0400 c         1 CA2      0.901600
      3 O1          1.4010   -0.4710   -1.0530 o         1 CA2     -0.824300
      4 C1          1.9940    0.0270    1.2280 c3        1 CA2      0.022800
      5 O3          3.0580   -0.8810    0.9740 oh        1 CA2     -0.642800
      6 C2          1.1300   -0.5290    2.3600 c3        1 CA2     -0.074400
      7 C3          1.8530   -0.5770    3.6970 c3        1 CA2     -0.055700
      8 C4          2.3580    0.8260    4.0480 c3        1 CA2      0.119100
      9 O4          3.0310    0.7720    5.3020 oh        1 CA2     -0.622800
     10 C5          3.3030    1.3300    2.9420 c3        1 CA2      0.104100
     11 O5          3.8290    2.5960    3.3260 oh        1 CA2     -0.626800
     12 C6          2.5890    1.3820    1.6040 c3        1 CA2     -0.098400
     13 C8          0.9460   -1.0980    4.8000 c3        1 CA2     -0.072400
     14 C9          0.7740   -2.6010    4.7270 c3        1 CA2     -0.083400
     15 C10        -0.1330   -3.0680    5.8520 c3        1 CA2      0.127400
     16 O11        -0.1650   -4.5020    5.7680 os        1 CA2     -0.326900
     17 C12        -0.9510   -5.1440    6.6970 ca        1 CA2      0.142100
     18 C17        -0.9790   -6.5490    6.5760 ca        1 CA2     -0.186000
     19 C16        -1.7390   -7.2930    7.4690 ca        1 CA2     -0.100000
     20 C15        -2.4700   -6.6600    8.4780 ca        1 CA2     -0.178000
     21 C14        -2.4390   -5.2730    8.5910 ca        1 CA2     -0.100000
     22 C13        -1.6820   -4.5040    7.7060 ca        1 CA2     -0.186000
     23 H3          2.9500   -1.1920    0.0600 ho        1 CA2      0.430000
     24 H2C1        0.2140    0.1140    2.4350 hc        1 CA2      0.053700
     25 H2C2        0.8080   -1.5650    2.0800 hc        1 CA2      0.053700
     26 HA          2.7480   -1.2540    3.6000 hc        1 CA2      0.068700
     27 H4          1.4880    1.5340    4.1540 h1        1 CA2      0.030700
     28 HB          3.6780    1.4890    5.2990 ho        1 CA2      0.406000
     29 H5          4.2060    0.6590    2.8810 h1        1 CA2      0.089700
     30 HC          3.1430    3.2520    3.1550 ho        1 CA2      0.395000
     31 H6C1        1.7530    2.1300    1.6330 hc        1 CA2      0.058700
     32 H6C2        3.3160    1.6970    0.8120 hc        1 CA2      0.058700
     33 H8C1       -0.0560   -0.5990    4.7270 hc        1 CA2      0.042200
     34 H8C2        1.3870   -0.8250    5.7960 hc        1 CA2      0.042200
     35 H9C1        0.3310   -2.8970    3.7410 hc        1 CA2      0.061700
     36 H9C2        1.7690   -3.1100    4.8120 hc        1 CA2      0.061700
     37 H101        0.2750   -2.7670    6.8530 h1        1 CA2      0.036200
     38 H102       -1.1710   -2.6650    5.7290 h1        1 CA2      0.036200
     39 H17        -0.3990   -7.0300    5.7760 ha        1 CA2      0.144000
     40 H16        -1.7650   -8.3880    7.3780 ha        1 CA2      0.124500
     41 H15        -3.0690   -7.2580    9.1780 ha        1 CA2      0.124000
     42 H14        -3.0150   -4.7730    9.3830 ha        1 CA2      0.124500
     43 H13        -1.6690   -3.4110    7.8080 ha        1 CA2      0.144000
@<TRIPOS>BOND
     1    1    2 1   
     2    2    3 1   
     3    2    4 1   
     4    4    5 1   
     5    4    6 1   
     6    4   12 1   
     7    5   23 1   
     8    6    7 1   
     9    6   24 1   
    10    6   25 1   
    11    7    8 1   
    12    7   13 1   
    13    7   26 1   
    14    8    9 1   
    15    8   10 1   
    16    8   27 1   
    17    9   28 1   
    18   10   11 1   
    19   10   12 1   
    20   10   29 1   
    21   11   30 1   
    22   12   31 1   
    23   12   32 1   
    24   13   14 1   
    25   13   33 1   
    26   13   34 1   
    27   14   15 1   
    28   14   35 1   
    29   14   36 1   
    30   15   16 1   
    31   15   37 1   
    32   15   38 1   
    33   16   17 1   
    34   17   18 ar  
    35   17   22 ar  
    36   18   19 ar  
    37   18   39 1   
    38   19   20 ar  
    39   19   40 1   
    40   20   21 ar  
    41   20   41 1   
    42   21   22 ar  
    43   21   42 1   
    44   22   43 1   
@<TRIPOS>SUBSTRUCTURE
     1 CA2         1 TEMP              0 ****  ****    0 ROOT
