@<TRIPOS>MOLECULE
CA4
   58    62     1     0     0
SMALL
bcc


@<TRIPOS>ATOM
      1 C4          0.0270   -0.0810    0.0000 ce        1 CA4     -0.232200
      2 C14         5.3020    1.6730   -0.2990 c3        1 CA4     -0.060700
      3 C5          1.3710    0.0020   -0.0070 cf        1 CA4     -0.009200
      4 C6          2.1360    0.0440   -1.2550 cf        1 CA4      0.004400
      5 C11         4.1550    1.3140    2.3290 c3        1 CA4     -0.072400
      6 C7          3.4480    0.3400   -1.3130 c2        1 CA4     -0.126200
      7 C8          4.2550    0.5970   -0.0930 c3        1 CA4     -0.025500
      8 C9          3.3500    1.0450    1.0660 c3        1 CA4     -0.049700
      9 C10         2.1990    0.0370    1.2640 c3        1 CA4      0.014200
     10 C12         5.3000    2.2910    2.1030 c3        1 CA4     -0.065400
     11 C13         6.1890    1.8300    0.9600 c3        1 CA4     -0.032000
     12 C3         -0.7880   -0.1060    1.2250 c         1 CA4      0.595300
     13 C19         2.7130   -1.3800    1.5210 c3        1 CA4     -0.087100
     14 C1          1.3870    0.4630    2.4670 cx        1 CA4     -0.102700
     15 C22         0.5570    1.7140    2.4490 cx        1 CA4     -0.103400
     16 C2         -0.1210    0.3680    2.4610 cx        1 CA4     -0.228700
     17 O3         -1.9610   -0.4970    1.2210 o         1 CA4     -0.521100
     18 CL6         1.3130   -0.2970   -2.7150 cl        1 CA4     -0.105400
     19 C18         6.9220    0.5550    1.3480 c3        1 CA4     -0.100100
     20 C15         6.2930    1.5490   -1.4460 c3        1 CA4     -0.075400
     21 C16         7.4600    2.4540   -1.0460 c3        1 CA4     -0.094400
     22 C17         7.2580    2.8500    0.4370 c3        1 CA4      0.071800
     23 C20         8.5510    2.7930    1.2450 c         1 CA4      0.574100
     24 C21         8.6400    3.6980    2.4300 c3        1 CA4     -0.201100
     25 O20         9.4630    2.0240    0.9340 o         1 CA4     -0.520100
     26 O17         6.6340    4.1430    0.5490 os        1 CA4     -0.438900
     27 C23         7.2600    5.2570    0.0600 c         1 CA4      0.633100
     28 C24         6.3950    6.4690    0.1400 c3        1 CA4     -0.152100
     29 O23         8.4130    5.1710   -0.3620 o         1 CA4     -0.535000
     30 H4         -0.5560   -0.1460   -0.9360 ha        1 CA4      0.164000
     31 H14         4.7560    2.6530   -0.4410 hc        1 CA4      0.062700
     32 H111        4.5590    0.3510    2.7380 hc        1 CA4      0.046200
     33 H112        3.4740    1.7490    3.1090 hc        1 CA4      0.046200
     34 H7          3.9940    0.3800   -2.2690 ha        1 CA4      0.149000
     35 H8          4.7630   -0.3740    0.1770 hc        1 CA4      0.076700
     36 H9          2.8690    2.0220    0.7650 hc        1 CA4      0.058700
     37 H121        4.8880    3.3080    1.8710 hc        1 CA4      0.051200
     38 H122        5.9010    2.3750    3.0460 hc        1 CA4      0.051200
     39 H191        3.4700   -1.3770    2.3410 hc        1 CA4      0.045700
     40 H192        1.8650   -2.0420    1.8210 hc        1 CA4      0.045700
     41 H193        3.1810   -1.8010    0.5990 hc        1 CA4      0.045700
     42 H1          1.9000    0.1970    3.4150 hc        1 CA4      0.090700
     43 H221        0.5210    2.3210    1.5260 hc        1 CA4      0.080700
     44 H222        0.5040    2.3360    3.3600 hc        1 CA4      0.080700
     45 H2         -0.6420    0.0440    3.3850 hc        1 CA4      0.108700
     46 H181        6.2070   -0.2740    1.5630 hc        1 CA4      0.048367
     47 H182        7.6100    0.2320    0.5290 hc        1 CA4      0.048367
     48 H183        7.5310    0.7320    2.2690 hc        1 CA4      0.048367
     49 H151        5.8410    1.8780   -2.4130 hc        1 CA4      0.049200
     50 H152        6.6340    0.4910   -1.5690 hc        1 CA4      0.049200
     51 H161        7.4930    3.3710   -1.6840 hc        1 CA4      0.075700
     52 H162        8.4360    1.9180   -1.1600 hc        1 CA4      0.075700
     53 H211        7.6510    3.7650    2.9440 hc        1 CA4      0.069700
     54 H212        8.9320    4.7190    2.0750 hc        1 CA4      0.069700
     55 H213        9.4130    3.3310    3.1470 hc        1 CA4      0.069700
     56 H241        6.9790    7.3030    0.6000 hc        1 CA4      0.077700
     57 H242        6.0930    6.7610   -0.8960 hc        1 CA4      0.077700
     58 H243        5.4800    6.2700    0.7480 hc        1 CA4      0.077700
@<TRIPOS>BOND
     1    1    3 2
     2    1   12 1
     3    1   30 1
     4    2    7 1
     5    2   11 1
     6    2   20 1
     7    2   31 1
     8    3    4 1
     9    3    9 1
    10    4    6 2
    11    4   18 1
    12    5    8 1
    13    5   10 1
    14    5   32 1
    15    5   33 1
    16    6    7 1
    17    6   34 1
    18    7    8 1
    19    7   35 1
    20    8    9 1
    21    8   36 1
    22    9   13 1
    23    9   14 1
    24   10   11 1
    25   10   37 1
    26   10   38 1
    27   11   19 1
    28   11   22 1
    29   12   16 1
    30   12   17 2
    31   13   39 1
    32   13   40 1
    33   13   41 1
    34   14   15 1
    35   14   16 1
    36   14   42 1
    37   15   16 1
    38   15   43 1
    39   15   44 1
    40   16   45 1
    41   19   46 1
    42   19   47 1
    43   19   48 1
    44   20   21 1
    45   20   49 1
    46   20   50 1
    47   21   22 1
    48   21   51 1
    49   21   52 1
    50   22   23 1
    51   22   26 1
    52   23   24 1
    53   23   25 2
    54   24   53 1
    55   24   54 1
    56   24   55 1
    57   26   27 1
    58   27   28 1
    59   27   29 2
    60   28   56 1
    61   28   57 1
    62   28   58 1
@<TRIPOS>SUBSTRUCTURE
     1 CA4         1 TEMP              0 ****  ****    0 ROOT
