@<TRIPOS>MOLECULE
CA7
   82    80     1     0     0
SMALL
bcc


@<TRIPOS>ATOM
      1 C1         -0.4420    1.5400    2.2240 c2        1 CA7      0.000100
      2 O1          1.1390    0.0180   -2.2870 oh        1 CA7     -0.539100
      3 C2         -0.1830    0.4390    1.4770 ce        1 CA7      0.009100
      4 O2          0.8250    0.4730    0.5350 oh        1 CA7     -0.538100
      5 C3         -1.0090   -0.7460    1.5980 ce        1 CA7     -0.211000
      6 O3          2.8180   -1.0200   -0.5930 oh        1 CA7     -0.817000
      7 C4         -1.9790   -0.7280    2.5360 c2        1 CA7      0.061900
      8 O4         -2.9150   -1.7150    2.7650 os        1 CA7     -0.362900
      9 C5         -2.1390    0.4070    3.5090 c3        1 CA7      0.149300
     10 O5         -1.5200    1.6270    3.0770 os        1 CA7     -0.314900
     11 C6         -1.5770    0.0510    4.8960 c3        1 CA7      0.113400
     12 O6         -1.9360   -1.2410    5.3320 oh        1 CA7     -0.590800
     13 OAB        -2.8450   -1.3470   -1.3690 oh        1 CA7     -0.606800
     14 OAF        -2.0510   -3.6120    1.8910 oh        1 CA7     -0.608800
     15 OAG         2.7270   -1.6380   -3.4150 oh        1 CA7     -0.595800
     16 CAH        -8.9130   -5.6410    3.2670 c3        1 CA7     -0.076400
     17 CAI        -7.9920   -4.7340    4.0610 c3        1 CA7     -0.030200
     18 CAJ       -10.1490   -5.9950    4.0660 c3        1 CA7     -0.080400
     19 CAK       -15.2890   -9.5950    2.1400 c3        1 CA7     -0.074400
     20 CAL        -6.7900   -4.3680    3.2780 c2        1 CA7     -0.257200
     21 CAM       -11.0740   -6.8950    3.2740 c3        1 CA7     -0.079400
     22 CAN       -15.4710   -9.3390    3.6200 c3        1 CA7     -0.074900
     23 CAO       -14.8730   -8.3360    1.4030 c3        1 CA7     -0.074900
     24 CAP        -5.5530   -4.4360    3.7870 c2        1 CA7      0.028100
     25 CAS       -12.3080   -7.2500    4.0760 c3        1 CA7     -0.075400
     26 CAT       -14.1820   -8.8870    4.2810 c3        1 CA7     -0.071900
     27 CAU       -14.0600   -7.4000    2.2760 c3        1 CA7     -0.071900
     28 OAV        -4.8040   -4.1930    0.9180 oh        1 CA7     -0.603800
     29 OAX        -4.3830   -4.1100    3.1300 os        1 CA7     -0.381900
     30 CAZ       -13.2510   -8.1660    3.3120 c3        1 CA7     -0.061700
     31 CBB        -0.8430   -1.3060   -2.7100 c2        1 CA7     -0.310200
     32 CBF        -3.0830   -2.6860    1.7340 c3        1 CA7      0.301900
     33 CBG         1.3730   -1.7840   -3.7930 c3        1 CA7      0.170600
     34 CBH        -4.4840   -3.3130    1.9570 c3        1 CA7      0.304900
     35 CBJ         0.4570   -1.0170   -2.8820 c2        1 CA7      0.048900
     36 H1         -0.8390   -1.5930    0.9190 ha        1 CA7      0.171000
     37 H2          0.0890    2.5010    2.1830 h4        1 CA7      0.182000
     38 HO2         1.4010   -0.2940    0.7070 ho        1 CA7      0.452000
     39 H3          0.6100    0.3800   -1.5560 ho        1 CA7      0.456000
     40 HO3         2.9910   -0.2330   -1.1180 ho        1 CA7      0.409500
     41 H4          2.5060   -1.6600   -1.2430 ho        1 CA7      0.409500
     42 HO4        -1.2640   -0.2010   -0.8830 h1        1 CA7      0.058200
     43 H5         -0.4540    0.0580    4.8780 h1        1 CA7      0.056200
     44 H6         -3.2310    0.6820    3.5990 h1        1 CA7      0.086700
     45 H6A        -1.9410    0.8140    5.6360 h1        1 CA7      0.056200
     46 HO6        -2.8370   -1.4190    5.0330 ho        1 CA7      0.412000
     47 HOAB       -3.3010   -1.7000   -2.1410 ho        1 CA7      0.404000
     48 HOAF       -2.0820   -3.9500    2.7990 ho        1 CA7      0.438000
     49 HOAG        2.9470   -0.6990   -3.4720 ho        1 CA7      0.416000
     50 HAH        -6.9200   -3.5990   -0.0910 ha        1 CA7      0.001500
     51 HAHA       -8.3660   -6.5770    2.9830 hc        1 CA7      0.043700
     52 HAI        -9.2130   -5.1310    2.3140 hc        1 CA7      0.043700
     53 HAIA       -7.7050   -5.2420    5.0210 hc        1 CA7      0.042700
     54 HAJ       -10.6940   -5.0570    4.3540 hc        1 CA7      0.039200
     55 HAJA       -9.8490   -6.5070    5.0180 hc        1 CA7      0.039200
     56 HAKA      -14.5090  -10.3890    1.9980 hc        1 CA7      0.038200
     57 HAL        -6.8150   -2.9850    0.1750 ha        1 CA7      0.001500
     58 HALA       -6.9700   -4.0350    2.2420 ha        1 CA7      0.145000
     59 HAM       -11.3720   -6.3820    2.3220 hc        1 CA7      0.040700
     60 HAMA      -10.5280   -7.8330    2.9870 hc        1 CA7      0.040700
     61 HAN       -16.2580   -8.5510    3.7590 hc        1 CA7      0.037450
     62 HANA      -15.8420  -10.2710    4.1210 hc        1 CA7      0.037450
     63 HAO       -15.7830   -7.7930    1.0360 hc        1 CA7      0.037450
     64 HAOA      -14.2750   -8.6240    0.4980 hc        1 CA7      0.037450
     65 HAP        -8.5450   -3.7950    4.3380 hc        1 CA7      0.042700
     66 HAPA       -5.2890   -4.7950    4.7970 h4        1 CA7      0.161000
     67 HAR        -2.9960   -2.2580    0.6940 h2        1 CA7      0.134700
     68 HARA       -2.1730    0.3470   -2.3810 h1        1 CA7      0.058200
     69 HAS       -12.8510   -6.3130    4.3680 hc        1 CA7      0.040200
     70 HASA      -11.9920   -7.7600    5.0250 hc        1 CA7      0.040200
     71 HAT       -13.6420   -9.7730    4.7060 hc        1 CA7      0.038450
     72 HATA      -14.4310   -8.2100    5.1400 hc        1 CA7      0.038450
     73 HAU       -12.6380   -8.9410    2.7700 hc        1 CA7      0.048700
     74 HAUA      -14.7450   -6.6860    2.8040 hc        1 CA7      0.038450
     75 HAZ       -13.3740   -6.7890    1.6340 hc        1 CA7      0.038450
     76 HBB        -4.1050   -4.8620    0.8690 ho        1 CA7      0.426000
     77 HBF         1.2210   -1.4390   -4.8520 h1        1 CA7      0.066200
     78 HBG         1.1690   -2.8870   -3.7190 h1        1 CA7      0.066200
     79 HBH        -5.2950   -2.5410    2.0050 h2        1 CA7      0.105700
     80 HBJ        -1.2780   -2.1690   -3.2370 ha        1 CA7      0.142000
     81 CAR        -1.7690   -0.5480   -1.8310 c3        1 CA7      0.164600
     82 HAK       -16.2450   -9.9870    1.7050 hc        1 CA7      0.038200
@<TRIPOS>BOND
     1    1    3 2   
     2    1   10 1   
     3    1   37 1   
     4    2   35 1   
     5    2   39 1   
     6    3    4 1   
     7    3    5 1   
     8    4   38 1   
     9    5    7 2   
    10    5   36 1   
    11    6   40 1   
    12    6   41 1   
    13    7    8 1   
    14    7    9 1   
    15    8   32 1   
    16    9   10 1   
    17    9   11 1   
    18    9   44 1   
    19   11   12 1   
    20   11   43 1   
    21   11   45 1   
    22   12   46 1   
    23   13   47 1   
    24   13   81 1   
    25   14   32 1   
    26   14   48 1   
    27   15   33 1   
    28   15   49 1   
    29   16   17 1   
    30   16   18 1   
    31   16   51 1   
    32   16   52 1   
    33   17   20 1   
    34   17   53 1   
    35   17   65 1   
    36   18   21 1   
    37   18   54 1   
    38   18   55 1   
    39   19   22 1   
    40   19   23 1   
    41   19   56 1   
    42   19   82 1   
    43   20   24 2   
    44   20   58 1   
    45   21   25 1   
    46   21   59 1   
    47   21   60 1   
    48   22   26 1   
    49   22   61 1   
    50   22   62 1   
    51   23   27 1   
    52   23   63 1   
    53   23   64 1   
    54   24   29 1   
    55   24   66 1   
    56   25   30 1   
    57   25   69 1   
    58   25   70 1   
    59   26   30 1   
    60   26   71 1   
    61   26   72 1   
    62   27   30 1   
    63   27   74 1   
    64   27   75 1   
    65   28   34 1   
    66   28   76 1   
    67   29   34 1   
    68   30   73 1   
    69   31   35 2   
    70   31   80 1   
    71   31   81 1   
    72   32   34 1   
    73   32   67 1   
    74   33   35 1   
    75   33   77 1   
    76   33   78 1   
    77   34   79 1   
    78   42   81 1   
    79   50   57 1   
    80   68   81 1   
@<TRIPOS>SUBSTRUCTURE
     1 CA7         1 TEMP              0 ****  ****    0 ROOT
