@<TRIPOS>MOLECULE
molecule
   82    84     1     0     0
SMALL
bcc


@<TRIPOS>ATOM
      1 C1           0.0000     0.0000     0.0000 c3         1 CA7       0.320900
      2 O1          -0.4760    -1.1950     0.6250 os         1 CA7      -0.425600
      3 C2           1.5310     0.0000     0.0000 c3         1 CA7       0.122100
      4 O2           2.0090    -1.1670    -0.6720 oh         1 CA7      -0.585800
      5 C3           2.0350     0.0000     1.4460 c3         1 CA7       0.113100
      6 O3           3.4610     0.0750     1.4560 oh         1 CA7      -0.610800
      7 C4           1.4530     1.2130     2.1770 c3         1 CA7       0.108100
      8 O4           1.8580     1.1850     3.5480 oh         1 CA7      -0.602800
      9 C5          -0.0760     1.1660     2.0940 c3         1 CA7       0.139100
     10 O5          -0.4750     1.1380     0.7220 os         1 CA7      -0.419600
     11 C6          -0.6630     2.4070     2.7700 c3         1 CA7       0.149400
     12 O6          -2.0870     2.3070     2.7960 oh         1 CA7      -0.604800
     13 OAB         -2.6490    -2.4070     3.9790 oh         1 CA7      -0.605800
     14 OAF         -3.7870    -3.2210    -2.2550 oh         1 CA7      -0.599800
     15 OAG         -1.6660    -1.3230    -1.9740 oh         1 CA7      -0.610800
     16 CAH         -9.5180    -5.7560     1.7060 c3         1 CA7      -0.080400
     17 CAI         -8.0150    -5.5560     1.9210 c3         1 CA7      -0.080400
     18 CAJ        -10.0690    -6.6830     2.7910 c3         1 CA7      -0.082400
     19 CAK        -15.9320    -9.7740     3.0640 c3         1 CA7      -0.079400
     20 CAL         -7.4640    -4.6290     0.8360 c3         1 CA7      -0.082400
     21 CAM        -11.5700    -6.8840     2.5750 c3         1 CA7      -0.083400
     22 CAN        -15.7010    -9.0350     4.3830 c3         1 CA7      -0.079400
     23 CAO        -15.3570    -8.9500     1.9100 c3         1 CA7      -0.079400
     24 CAP         -5.9630    -4.4290     1.0510 c3         1 CA7       0.136400
     25 CAS        -12.1220    -7.8100     3.6600 c3         1 CA7      -0.077400
     26 CAT        -14.1990    -8.8340     4.5980 c3         1 CA7      -0.075900
     27 CAU        -13.8560    -8.7500     2.1250 c3         1 CA7      -0.075900
     28 OAV         -3.7850    -2.5880     1.3540 os         1 CA7      -0.428600
     29 OAX         -5.4470    -3.5630     0.0380 os         1 CA7      -0.408600
     30 CAZ        -13.6230    -8.0100     3.4450 c3         1 CA7      -0.070700
     31 CBB         -2.4030    -2.3040     1.5770 c3         1 CA7       0.166100
     32 CBF         -3.5810    -2.4790    -1.0520 c3         1 CA7       0.097100
     33 CBG         -2.0910    -2.1600    -0.8960 c3         1 CA7       0.116100
     34 CBH         -4.0460    -3.3090     0.1480 c3         1 CA7       0.336900
     35 CBJ         -1.8720    -1.4330     0.4350 c3         1 CA7       0.113100
     36 H1          -0.3590     0.0470    -1.0210 h2         1 CA7       0.116700
     37 H2           1.8900     0.8880    -0.5060 h1         1 CA7       0.060700
     38 HO2          2.6170    -0.9140    -1.3470 ho         1 CA7       0.408000
     39 H3           1.7110    -0.9080     1.9410 h1         1 CA7       0.075700
     40 HO3          3.8130    -0.6880     1.8830 ho         1 CA7       0.416000
     41 H4           1.8110     2.1220     1.7080 h1         1 CA7       0.051700
     42 HO4          2.5610     1.8000     3.6810 ho         1 CA7       0.413000
     43 H5          -0.4360     0.2740     2.5920 h1         1 CA7       0.072700
     44 H6          -0.3730     3.2920     2.2160 h1         1 CA7       0.035200
     45 H6A         -0.2870     2.4770     3.7840 h1         1 CA7       0.035200
     46 HO6         -2.4530     3.1060     3.1360 ho         1 CA7       0.405000
     47 HOAB        -2.4790    -1.9780     4.8000 ho         1 CA7       0.404000
     48 HOAF        -4.3940    -2.7590    -2.8090 ho         1 CA7       0.415000
     49 HOAG        -1.4930    -1.8530    -2.7340 ho         1 CA7       0.417000
     50 HAH        -10.0210    -4.7980     1.7590 hc         1 CA7       0.042200
     51 HAHA        -9.6870    -6.1990     0.7320 hc         1 CA7       0.042200
     52 HAI         -7.8460    -5.1140     2.8950 hc         1 CA7       0.043200
     53 HAIA        -7.5120    -6.5140     1.8670 hc         1 CA7       0.043200
     54 HAJ         -9.5660    -7.6410     2.7380 hc         1 CA7       0.041200
     55 HAJA        -9.9000    -6.2400     3.7650 hc         1 CA7       0.041200
     56 HAKA       -16.9950    -9.9130     2.9110 hc         1 CA7       0.039700
     57 HAL         -7.6330    -5.0710    -0.1380 hc         1 CA7       0.051700
     58 HALA        -7.9670    -3.6710     0.8900 hc         1 CA7       0.051700
     59 HAM        -11.7390    -7.3270     1.6010 hc         1 CA7       0.042700
     60 HAMA       -12.0740    -5.9260     2.6280 hc         1 CA7       0.042700
     61 HAN        -16.1060    -9.6200     5.2000 hc         1 CA7       0.039700
     62 HANA       -16.1910    -8.0690     4.3460 hc         1 CA7       0.039700
     63 HAO        -15.8470    -7.9850     1.8780 hc         1 CA7       0.039700
     64 HAOA       -15.5200    -9.4750     0.9770 hc         1 CA7       0.039700
     65 HAP         -5.7930    -3.9860     2.0250 h1         1 CA7       0.036700
     66 HAPA        -5.4600    -5.3870     0.9980 h1         1 CA7       0.036700
     67 HAR         -1.2040    -1.2800     3.0370 h1         1 CA7       0.045200
     68 HARA        -2.8570    -0.6670     2.8940 h1         1 CA7       0.045200
     69 HAS        -11.6190    -8.7680     3.6080 hc         1 CA7       0.041700
     70 HASA       -11.9540    -7.3660     4.6340 hc         1 CA7       0.041700
     71 HAT        -14.0360    -8.3090     5.5320 hc         1 CA7       0.041200
     72 HATA       -13.7080    -9.7990     4.6310 hc         1 CA7       0.041200
     73 HAU        -13.4500    -8.1650     1.3080 hc         1 CA7       0.041200
     74 HAUA       -13.3660    -9.7160     2.1630 hc         1 CA7       0.041200
     75 HAZ        -14.1190    -7.0480     3.4090 hc         1 CA7       0.050700
     76 HBB         -1.8450    -3.2320     1.6090 h1         1 CA7       0.059700
     77 HBF         -4.1450    -1.5550    -1.0900 h1         1 CA7       0.068700
     78 HBG         -1.5230    -3.0820    -0.9010 h1         1 CA7       0.060700
     79 HBH         -3.5040    -4.2480     0.1660 h2         1 CA7       0.041700
     80 HBJ         -2.4070    -0.4910     0.4220 h1         1 CA7       0.081700
     81 CAR         -2.2420    -1.5590     2.9030 c3         1 CA7       0.148400
     82 HAK        -15.4380   -10.7370     3.0990 hc         1 CA7       0.039700
@<TRIPOS>BOND
     1    10     1 1
     2     2     1 1
     3     1     3 1
     4     1    36 1
     5    35     2 1
     6     5     3 1
     7     3     4 1
     8     3    37 1
     9     4    38 1
    10     7     5 1
    11     5     6 1
    12     5    39 1
    13     6    40 1
    14     9     7 1
    15     8     7 1
    16     7    41 1
    17     8    42 1
    18    11     9 1
    19     9    10 1
    20     9    43 1
    21    11    12 1
    22    11    44 1
    23    11    45 1
    24    12    46 1
    25    81    13 1
    26    13    47 1
    27    14    32 1
    28    14    48 1
    29    15    33 1
    30    15    49 1
    31    18    16 1
    32    16    17 1
    33    16    50 1
    34    16    51 1
    35    20    17 1
    36    17    52 1
    37    17    53 1
    38    21    18 1
    39    18    54 1
    40    18    55 1
    41    23    19 1
    42    22    19 1
    43    19    82 1
    44    19    56 1
    45    20    24 1
    46    20    57 1
    47    20    58 1
    48    21    25 1
    49    21    59 1
    50    21    60 1
    51    22    26 1
    52    22    61 1
    53    22    62 1
    54    23    27 1
    55    23    63 1
    56    23    64 1
    57    29    24 1
    58    24    65 1
    59    24    66 1
    60    31    81 1
    61    81    67 1
    62    81    68 1
    63    30    25 1
    64    25    69 1
    65    25    70 1
    66    30    26 1
    67    26    71 1
    68    26    72 1
    69    30    27 1
    70    27    73 1
    71    27    74 1
    72    34    28 1
    73    28    31 1
    74    29    34 1
    75    30    75 1
    76    35    31 1
    77    31    76 1
    78    32    33 1
    79    32    34 1
    80    32    77 1
    81    33    35 1
    82    33    78 1
    83    34    79 1
    84    35    80 1
@<TRIPOS>SUBSTRUCTURE
     1 CA7         1 TEMP              0 ****  ****    0 ROOT
