@<TRIPOS>MOLECULE
molecule
   72    74     1     0     0
SMALL
bcc


@<TRIPOS>ATOM
      1 C1           0.0000     0.0000     0.0000 ce         1 CA9       0.037100
      2 C2           1.2820    -0.5470     2.4150 c3         1 CA9      -0.070400
      3 C3           2.1280     0.0000     1.2670 c3         1 CA9      -0.072200
      4 C4           1.3190     0.0000     0.0000 c2         1 CA9      -0.133200
      5 C5          -0.0290     0.2380     2.5020 c3         1 CA9      -0.052000
      6 C6          -0.8530     0.0010     1.2220 c3         1 CA9      -0.061500
      7 C7          -1.4830    -1.3900     1.4490 c3         1 CA9      -0.090400
      8 C8          -1.8140    -1.4130     2.9570 c3         1 CA9      -0.054400
      9 C9          -0.8880    -0.3820     3.6270 c3         1 CA9      -0.024700
     10 C10          0.2300     1.7280     2.7310 c3         1 CA9      -0.109100
     11 C12         -1.7220     0.7050     4.3070 c3         1 CA9      -0.066700
     12 C13         -2.4430     0.1100     5.5200 c3         1 CA9      -0.077100
     13 C14         -2.7540     1.2520     3.3190 c3         1 CA9      -0.429400
     14 C15         -3.5010     2.4250     3.9570 c3         1 CA9      -0.130400
     15 C16         -4.5310     2.9710     2.9680 c3         1 CA9      -0.049400
     16 C17         -5.2770     4.1460     3.6060 c3         1 CA9       0.112800
     17 C18         -4.2810     5.2490     3.9650 c3         1 CA9      -0.137600
     18 C19         -6.3090     4.6920     2.6170 c3         1 CA9      -0.137600
     19 O20         -5.9420     3.7010     4.7890 oh         1 CA9      -0.587800
     20 C21         -0.6610     0.0050    -1.2700 cg         1 CA9      -0.165300
     21 C22         -1.2170    -0.0040    -2.3050 ch         1 CA9      -0.172300
     22 C23         -1.4940     0.4070    -3.9320 cf         1 CA9       0.057100
     23 C24         -0.5720     1.3160    -4.6140 c3         1 CA9      -0.043200
     24 C25         -1.1110     1.5210    -6.1870 c3         1 CA9       0.106100
     25 C26         -1.8870     0.4570    -7.0650 c3         1 CA9      -0.048700
     26 C27         -2.9790    -0.2800    -5.7480 c3         1 CA9       0.168300
     27 C28         -2.9200    -0.3410    -4.6390 c2         1 CA9      -0.152200
     28 O29         -0.1620     2.2780    -7.0660 oh         1 CA9      -0.640800
     29 O30         -3.9820     0.6520    -5.7650 oh         1 CA9      -0.560800
     30 C31         -2.4440     0.9050    -8.2370 c3         1 CA9      -0.082100
     31 H2           1.1390    -1.6210     2.4260 hc         1 CA9       0.042700
     32 H2A          1.8720    -0.3180     3.2940 hc         1 CA9       0.042700
     33 H3           2.9390    -0.6550     1.5610 hc         1 CA9       0.053700
     34 H3A          2.6150     0.9680     1.2760 hc         1 CA9       0.053700
     35 H4           1.8670    -0.4300    -0.8290 ha         1 CA9       0.127000
     36 H6          -1.6300     0.7520     1.1350 hc         1 CA9       0.071700
     37 H7          -0.6270    -1.8970     1.0200 hc         1 CA9       0.064200
     38 H7A         -2.2400    -1.1080     0.7270 hc         1 CA9       0.064200
     39 H8          -2.8760    -1.4540     2.7470 hc         1 CA9       0.059700
     40 H8A         -1.5860    -2.1920     3.6750 hc         1 CA9       0.059700
     41 H9          -0.2500    -0.8750     4.3500 hc         1 CA9       0.052700
     42 H10          0.4150     1.8250     3.7930 hc         1 CA9       0.039033
     43 H10A        -0.7870     2.0690     2.5810 hc         1 CA9       0.039033
     44 H10B         0.6410     2.4610     2.0470 hc         1 CA9       0.039033
     45 H12         -1.0720     1.5080     4.6320 hc         1 CA9       0.013700
     46 H13         -1.8620     0.2280     6.4270 hc         1 CA9       0.024367
     47 H13A        -3.3920     0.5810     5.7420 hc         1 CA9       0.024367
     48 H13B        -2.4740    -0.9720     5.4800 hc         1 CA9       0.024367
     49 H14         -3.2510     2.1570     3.6470 hc         1 CA9       0.150700
     50 H14A        -2.0380     1.4220     2.5240 hc         1 CA9       0.150700
     51 H15         -4.4930     2.0860     4.2280 hc         1 CA9       0.112200
     52 H15A        -2.7880     2.7260     4.7150 hc         1 CA9       0.112200
     53 H16         -3.9830     3.6820     2.3600 hc         1 CA9       0.074700
     54 H16A        -5.0710     2.2450     2.3720 hc         1 CA9       0.074700
     55 H18         -4.5660     6.2570     4.2390 hc         1 CA9       0.052367
     56 H18A        -3.4560     4.5970     4.2250 hc         1 CA9       0.052367
     57 H18B        -3.8250     5.5030     3.0150 hc         1 CA9       0.052367
     58 H19         -5.7700     5.1500     1.7970 hc         1 CA9       0.052367
     59 H19A        -7.1410     4.0090     2.4880 hc         1 CA9       0.052367
     60 H19B        -6.6510     5.5760     3.1410 hc         1 CA9       0.052367
     61 HO20        -6.5300     4.4200     4.9510 ho         1 CA9       0.401000
     62 H24         -0.2210     2.2390    -4.1680 hc         1 CA9       0.089200
     63 H24A         0.1840     0.6500    -5.0120 hc         1 CA9       0.089200
     64 H25         -1.8550     2.2690    -5.9430 h1         1 CA9       0.006700
     65 H26         -0.9960    -0.1580    -7.0500 hc         1 CA9       0.054700
     66 H27         -3.4070    -1.0260    -6.4060 h1         1 CA9       0.020700
     67 H28         -3.5660    -1.0010    -4.0730 ha         1 CA9       0.153000
     68 HO29        -0.0840     3.1950    -6.8620 ho         1 CA9       0.405000
     69 HO30        -4.6060     0.1220    -6.2320 ho         1 CA9       0.381000
     70 H31         -3.0200     1.7290    -7.8340 hc         1 CA9       0.061367
     71 H31A        -3.1720     0.3000    -8.7640 hc         1 CA9       0.061367
     72 H31B        -1.5530     1.1530    -8.8000 hc         1 CA9       0.061367
@<TRIPOS>BOND
     1     1     4 2
     2     1     6 1
     3     1    20 1
     4     2     3 1
     5     2     5 1
     6     3     4 1
     7     5     6 1
     8     5     9 1
     9     5    10 1
    10     6     7 1
    11     7     8 1
    12     8     9 1
    13     9    11 1
    14    11    12 1
    15    11    13 1
    16    13    14 1
    17    14    15 1
    18    15    16 1
    19    16    17 1
    20    16    18 1
    21    16    19 1
    22    20    21 3
    23    21    22 1
    24    22    23 1
    25    22    27 2
    26    23    24 1
    27    24    25 1
    28    24    28 1
    29    25    26 1
    30    25    30 1
    31    26    27 1
    32    26    29 1
    33     2    31 1
    34     2    32 1
    35     3    33 1
    36     3    34 1
    37     4    35 1
    38     6    36 1
    39     7    37 1
    40     7    38 1
    41     8    39 1
    42     8    40 1
    43     9    41 1
    44    10    42 1
    45    10    43 1
    46    10    44 1
    47    11    45 1
    48    12    46 1
    49    12    47 1
    50    12    48 1
    51    13    49 1
    52    13    50 1
    53    14    51 1
    54    14    52 1
    55    15    53 1
    56    15    54 1
    57    17    55 1
    58    17    56 1
    59    17    57 1
    60    18    58 1
    61    18    59 1
    62    18    60 1
    63    19    61 1
    64    23    62 1
    65    23    63 1
    66    24    64 1
    67    25    65 1
    68    26    66 1
    69    27    67 1
    70    28    68 1
    71    29    69 1
    72    30    70 1
    73    30    71 1
    74    30    72 1
@<TRIPOS>SUBSTRUCTURE
     1 CA9         1 TEMP              0 ****  ****    0 ROOT
