@<TRIPOS>MOLECULE
CA9
   72    74     1     0     0
SMALL
bcc


@<TRIPOS>ATOM
      1 C1         -1.0110   -0.1050    0.3220 cx        1 CA9     -0.023900
      2 C2          1.8290   -2.0860   -0.8300 c2        1 CA9     -0.222000
      3 C3          0.6720   -1.8580   -0.2140 c2        1 CA9     -0.161200
      4 C4          0.3830   -0.6280    0.5690 c3        1 CA9     -0.017200
      5 C5         -1.7160    0.7910    1.3560 cx        1 CA9     -0.080000
      6 C6         -2.2110   -0.6190    1.1050 cx        1 CA9     -0.099700
      7 C7         -1.9560   -1.4620    2.3250 c3        1 CA9     -0.058400
      8 C8         -1.3090   -0.5490    3.3680 c3        1 CA9     -0.081400
      9 C9         -1.0950    0.8430    2.7450 c3        1 CA9     -0.032700
     10 C10        -2.4390    1.9910    0.8550 c3        1 CA9     -0.064100
     11 C12        -1.6040    1.9760    3.6360 c3        1 CA9     -0.056700
     12 C13        -0.6720    2.1470    4.8220 c3        1 CA9     -0.093100
     13 C14        -3.0360    1.7740    4.1160 c3        1 CA9     -0.077400
     14 C15        -3.7530    3.0940    4.3120 c3        1 CA9     -0.080400
     15 C16        -5.1580    2.8820    4.8310 c3        1 CA9     -0.104400
     16 C17        -5.8380    4.1900    5.2480 c3        1 CA9      0.147800
     17 C18        -5.9670    5.1550    4.0760 c3        1 CA9     -0.103600
     18 C19        -7.2150    3.8770    5.8270 c3        1 CA9     -0.103600
     19 O20        -5.0520    4.8750    6.2250 oh        1 CA9     -0.596800
     20 C21        -1.2340    0.1950   -1.0530 c1        1 CA9     -0.063100
     21 C22        -1.4020    0.4330   -2.2170 cg        1 CA9     -0.178300
     22 C23        -1.5910    0.7140   -3.5850 ce        1 CA9      0.079100
     23 C24        -0.3440    0.8250   -4.3970 c3        1 CA9     -0.045200
     24 C25        -0.6010    1.4690   -5.7580 c3        1 CA9      0.146100
     25 C26        -1.8350    0.8530   -6.4270 c3        1 CA9     -0.093700
     26 C27        -3.0700    1.1310   -5.5610 c3        1 CA9      0.184300
     27 C28        -2.8210    0.8530   -4.1140 c2        1 CA9     -0.217200
     28 O29         0.5770    1.2390   -6.5200 oh        1 CA9     -0.600800
     29 O30        -3.4480    2.4910   -5.7700 oh        1 CA9     -0.598800
     30 C31        -2.0350    1.3740   -7.8310 c3        1 CA9     -0.090100
     31 H2          2.0230   -3.0150   -1.3830 ha        1 CA9      0.111500
     32 H2A         2.6570   -1.3660   -0.8290 ha        1 CA9      0.111500
     33 H3          1.1170    0.1850    0.3190 hc        1 CA9      0.057700
     34 H3A        -0.1480   -2.5950   -0.2400 ha        1 CA9      0.123000
     35 H4          0.5150   -0.8740    1.6580 hc        1 CA9      0.057700
     36 H6         -3.1460   -0.8250    0.5590 hc        1 CA9      0.092700
     37 H7         -1.2870   -2.3250    2.0780 hc        1 CA9      0.049700
     38 H7A        -2.9200   -1.8770    2.7100 hc        1 CA9      0.049700
     39 H8         -0.3270   -0.9700    3.7030 hc        1 CA9      0.045200
     40 H8A        -1.9610   -0.4840    4.2730 hc        1 CA9      0.045200
     41 H9          0.0130    1.0160    2.6150 hc        1 CA9      0.053700
     42 H10        -1.7300    2.8490    0.7450 hc        1 CA9      0.044700
     43 H10A       -3.2540    2.2900    1.5600 hc        1 CA9      0.044700
     44 H10B       -2.9010    1.7880   -0.1430 hc        1 CA9      0.044700
     45 H12        -1.5610    2.9260    3.0290 hc        1 CA9      0.053700
     46 H13         0.3500    2.4370    4.4780 hc        1 CA9      0.035033
     47 H13A       -1.0580    2.9450    5.5010 hc        1 CA9      0.035033
     48 H13B       -0.5930    1.1940    5.4000 hc        1 CA9      0.035033
     49 H14        -3.0350    1.2080    5.0860 hc        1 CA9      0.042200
     50 H14A       -3.6000    1.1500    3.3730 hc        1 CA9      0.042200
     51 H15        -3.7930    3.6500    3.3380 hc        1 CA9      0.049200
     52 H15A       -3.1830    3.7360    5.0370 hc        1 CA9      0.049200
     53 H16        -5.7840    2.3870    4.0450 hc        1 CA9      0.042700
     54 H16A       -5.1280    2.1960    5.7190 hc        1 CA9      0.042700
     55 H18        -6.4590    4.6390    3.2190 hc        1 CA9      0.043533
     56 H18A       -4.9570    5.5130    3.7640 hc        1 CA9      0.043533
     57 H18B       -6.5780    6.0390    4.3770 hc        1 CA9      0.043533
     58 H19        -7.8690    3.4370    5.0380 hc        1 CA9      0.043533
     59 H19A       -7.6870    4.8140    6.2090 hc        1 CA9      0.043533
     60 H19B       -7.1280    3.1530    6.6710 hc        1 CA9      0.043533
     61 HO20       -4.9460    4.2710    6.9690 ho        1 CA9      0.397000
     62 H24         0.4220    1.4330   -3.8460 hc        1 CA9      0.073700
     63 H24A        0.0920   -0.2000   -4.5480 hc        1 CA9      0.073700
     64 H25        -0.7670    2.5770   -5.6400 h1        1 CA9      0.051700
     65 H26        -1.6950   -0.2630   -6.4660 hc        1 CA9      0.065700
     66 H27        -3.9200    0.4770   -5.9190 h1        1 CA9      0.041700
     67 H28        -3.7240    0.7670   -3.4900 ha        1 CA9      0.130000
     68 HO29        0.4670    1.7180   -7.3500 ho        1 CA9      0.404000
     69 HO30       -4.0620    2.7250   -5.0630 ho        1 CA9      0.403000
     70 H31        -3.0080    1.0080   -8.2400 hc        1 CA9      0.041367
     71 H31A       -2.0560    2.4910   -7.8320 hc        1 CA9      0.041367
     72 H31B       -1.2140    1.0220   -8.5000 hc        1 CA9      0.041367
@<TRIPOS>BOND
     1    1    4 1   
     2    1    5 1   
     3    1    6 1   
     4    1   20 1   
     5    2    3 2   
     6    2   31 1   
     7    2   32 1   
     8    3    4 1   
     9    3   34 1   
    10    4   33 1   
    11    4   35 1   
    12    5    6 1   
    13    5    9 1   
    14    5   10 1   
    15    6    7 1   
    16    6   36 1   
    17    7    8 1   
    18    7   37 1   
    19    7   38 1   
    20    8    9 1   
    21    8   39 1   
    22    8   40 1   
    23    9   11 1   
    24    9   41 1   
    25   10   42 1   
    26   10   43 1   
    27   10   44 1   
    28   11   12 1   
    29   11   13 1   
    30   11   45 1   
    31   12   46 1   
    32   12   47 1   
    33   12   48 1   
    34   13   14 1   
    35   13   49 1   
    36   13   50 1   
    37   14   15 1   
    38   14   51 1   
    39   14   52 1   
    40   15   16 1   
    41   15   53 1   
    42   15   54 1   
    43   16   17 1   
    44   16   18 1   
    45   16   19 1   
    46   17   55 1   
    47   17   56 1   
    48   17   57 1   
    49   18   58 1   
    50   18   59 1   
    51   18   60 1   
    52   19   61 1   
    53   20   21 3   
    54   21   22 1   
    55   22   23 1   
    56   22   27 2   
    57   23   24 1   
    58   23   62 1   
    59   23   63 1   
    60   24   25 1   
    61   24   28 1   
    62   24   64 1   
    63   25   26 1   
    64   25   30 1   
    65   25   65 1   
    66   26   27 1   
    67   26   29 1   
    68   26   66 1   
    69   27   67 1   
    70   28   68 1   
    71   29   69 1   
    72   30   70 1   
    73   30   71 1   
    74   30   72 1   
@<TRIPOS>SUBSTRUCTURE
     1 CA9         1 TEMP              0 ****  ****    0 ROOT
