@<TRIPOS>MOLECULE
molecule
   28    29     1     0     0
SMALL
bcc


@<TRIPOS>ATOM
      1 C1           0.0000     0.0000     0.0000 c3         1 CAE      -0.068000
      2 C2           1.5590     0.0000     0.0000 c3         1 CAE      -0.073900
      3 C3           1.9490     0.0000     1.4950 c3         1 CAE      -0.078900
      4 C4           0.5900    -0.0000     2.2580 c3         1 CAE      -0.072700
      5 C5           0.0000     1.4210     2.0040 c3         1 CAE      -0.078900
      6 C6          -0.3910     1.4270     0.4880 c3         1 CAE      -0.073900
      7 C7          -0.2890    -0.8580     1.2810 c3         1 CAE      -0.065000
      8 C8          -1.7700    -0.8300     1.6680 c3         1 CAE      -0.077100
      9 C9           0.2330    -2.2880     1.1450 c3         1 CAE      -0.077100
     10 C10         -0.6690    -0.4700    -1.2930 c3         1 CAE      -0.062100
     11 H21          1.9360    -0.8900    -0.4890 hc         1 CAE       0.042700
     12 H22          1.9360     0.8900    -0.4890 hc         1 CAE       0.042700
     13 H31          2.5180     0.8900     1.7360 hc         1 CAE       0.041200
     14 H32          2.5180    -0.8900     1.7360 hc         1 CAE       0.041200
     15 H4           0.6170    -0.3330     3.2880 hc         1 CAE       0.072700
     16 H51          0.7460     2.1800     2.2040 hc         1 CAE       0.041200
     17 H52         -0.8760     1.5800     2.6200 hc         1 CAE       0.041200
     18 H61         -1.4550     1.5910     0.3700 hc         1 CAE       0.042700
     19 H62          0.1740     2.1800    -0.0470 hc         1 CAE       0.042700
     20 H81         -2.1920     0.1350     1.4110 hc         1 CAE       0.035367
     21 H82         -2.2980    -1.6090     1.1320 hc         1 CAE       0.035367
     22 H83         -1.8680    -0.9940     2.7340 hc         1 CAE       0.035367
     23 H91         -0.5230    -2.9060     0.6760 hc         1 CAE       0.035367
     24 H92          1.1290    -2.2890     0.5360 hc         1 CAE       0.035367
     25 H93          0.4640    -2.6830     2.1270 hc         1 CAE       0.035367
     26 H101        -0.3950     0.1950    -2.1040 hc         1 CAE       0.036033
     27 H102        -0.3420    -1.4760    -1.5250 hc         1 CAE       0.036033
     28 H103        -1.7450    -0.4600    -1.1670 hc         1 CAE       0.036033
@<TRIPOS>BOND
     1     1     2 1
     2     1     6 1
     3     1     7 1
     4     1    10 1
     5     2     3 1
     6     2    11 1
     7     2    12 1
     8     3     4 1
     9     3    13 1
    10     3    14 1
    11     4     5 1
    12     4     7 1
    13     4    15 1
    14     5     6 1
    15     5    16 1
    16     5    17 1
    17     6    18 1
    18     6    19 1
    19     7     8 1
    20     7     9 1
    21     8    20 1
    22     8    21 1
    23     8    22 1
    24     9    23 1
    25     9    24 1
    26     9    25 1
    27    10    26 1
    28    10    27 1
    29    10    28 1
@<TRIPOS>SUBSTRUCTURE
     1 CAE         1 TEMP              0 ****  ****    0 ROOT
