@<TRIPOS>MOLECULE
CAE
   28    29     1     0     0
SMALL
bcc


@<TRIPOS>ATOM
      1 C1         -0.0070    0.0050    0.0080 c3        1 CAE     -0.057000
      2 C2          1.5400   -0.0030   -0.0510 c3        1 CAE     -0.074400
      3 C3          1.9680    0.0150    1.4260 c3        1 CAE     -0.078400
      4 C4          0.6310    0.0360    2.1940 c3        1 CAE     -0.067700
      5 C5          0.0350    1.4400    1.9700 c3        1 CAE     -0.078400
      6 C6         -0.3950    1.4230    0.4930 c3        1 CAE     -0.074400
      7 C7         -0.2810   -0.8570    1.2920 c3        1 CAE     -0.053000
      8 C8         -1.7300   -0.8780    1.7280 c3        1 CAE     -0.080100
      9 C9          0.1880   -2.2920    1.1880 c3        1 CAE     -0.080100
     10 C10        -0.6810   -0.4290   -1.2520 c3        1 CAE     -0.071100
     11 H21         1.9230    0.8890   -0.6010 hc        1 CAE      0.041700
     12 H22         1.9110   -0.9160   -0.5760 hc        1 CAE      0.041700
     13 H31         2.5850    0.9140    1.6630 hc        1 CAE      0.041200
     14 H32         2.5660   -0.8900    1.6900 hc        1 CAE      0.041200
     15 H4          0.7000   -0.2750    3.2530 hc        1 CAE      0.064700
     16 H51        -0.8350    1.6180    2.6470 hc        1 CAE      0.041200
     17 H52         0.7910    2.2370    2.1670 hc        1 CAE      0.041200
     18 H61        -1.4930    1.5930    0.3830 hc        1 CAE      0.041700
     19 H62         0.1350    2.2070   -0.0980 hc        1 CAE      0.041700
     20 H81        -2.1640    0.1440    1.8190 hc        1 CAE      0.034700
     21 H82        -2.3400   -1.4480    0.9840 hc        1 CAE      0.034700
     22 H83        -1.8180   -1.3840    2.7210 hc        1 CAE      0.034700
     23 H91         0.0960   -2.7920    2.1830 hc        1 CAE      0.034700
     24 H92        -0.4470   -2.8450    0.4530 hc        1 CAE      0.034700
     25 H93         1.2490   -2.3720    0.8560 hc        1 CAE      0.034700
     26 H101       -0.3680   -1.4660   -1.5250 hc        1 CAE      0.036033
     27 H102       -1.7920   -0.4160   -1.1250 hc        1 CAE      0.036033
     28 H103       -0.4110    0.2570   -2.0920 hc        1 CAE      0.036033
@<TRIPOS>BOND
     1    1    2 1   
     2    1    6 1   
     3    1    7 1   
     4    1   10 1   
     5    2    3 1   
     6    2   11 1   
     7    2   12 1   
     8    3    4 1   
     9    3   13 1   
    10    3   14 1   
    11    4    5 1   
    12    4    7 1   
    13    4   15 1   
    14    5    6 1   
    15    5   16 1   
    16    5   17 1   
    17    6   18 1   
    18    6   19 1   
    19    7    8 1   
    20    7    9 1   
    21    8   20 1   
    22    8   21 1   
    23    8   22 1   
    24    9   23 1   
    25    9   24 1   
    26    9   25 1   
    27   10   26 1   
    28   10   27 1   
    29   10   28 1   
@<TRIPOS>SUBSTRUCTURE
     1 CAE         1 TEMP              0 ****  ****    0 ROOT
