@<TRIPOS>MOLECULE
CAH
   28    29     1     0     0
SMALL
bcc


@<TRIPOS>ATOM
      1 C1         -0.0160    0.0070   -0.0070 c3        1 CAH     -0.151000
      2 C2          1.5220    0.0170    0.0210 c         1 CAH      0.573100
      3 O2          2.2810    0.0250   -0.9410 o         1 CAH     -0.515100
      4 C3          1.9230    0.0290    1.4920 c3        1 CAH     -0.186400
      5 C4          0.5580    0.0820    2.2070 c3        1 CAH     -0.102700
      6 C5          0.0150    1.5090    1.9150 c3        1 CAH      0.134100
      7 O5         -1.1080    1.8710    2.6940 oh        1 CAH     -0.592800
      8 C6         -0.4180    1.4360    0.4300 c3        1 CAH     -0.069400
      9 C7         -0.3190   -0.8300    1.2870 c3        1 CAH     -0.043000
     10 C8          0.1930   -2.2540    1.2060 c3        1 CAH     -0.089600
     11 C9         -1.7800   -0.8720    1.6680 c3        1 CAH     -0.089600
     12 C10        -0.6340   -0.4600   -1.2830 c3        1 CAH     -0.070100
     13 H31         2.4900   -0.8960    1.7540 hc        1 CAH      0.076700
     14 H32         2.5650    0.9120    1.7250 hc        1 CAH      0.076700
     15 H4          0.5740   -0.2000    3.2750 hc        1 CAH      0.074700
     16 H5          0.8210    2.2780    2.0690 h1        1 CAH      0.039700
     17 HO5        -0.8580    1.7450    3.6170 ho        1 CAH      0.402000
     18 H61         0.1050    2.2100   -0.1780 hc        1 CAH      0.068200
     19 H62        -1.5200    1.5850    0.3300 hc        1 CAH      0.068200
     20 H81         0.3220   -2.6680    2.2350 hc        1 CAH      0.043033
     21 H82        -0.5400   -2.8930    0.6550 hc        1 CAH      0.043033
     22 H83         1.1700   -2.3210    0.6710 hc        1 CAH      0.043033
     23 H91        -1.9110   -1.4840    2.5940 hc        1 CAH      0.043033
     24 H92        -2.3700   -1.3430    0.8430 hc        1 CAH      0.043033
     25 H93        -2.1960    0.1460    1.8600 hc        1 CAH      0.043033
     26 H101       -1.7420   -0.3260   -1.2510 hc        1 CAH      0.046033
     27 H102       -0.2220    0.1210   -2.1440 hc        1 CAH      0.046033
     28 H103       -0.4090   -1.5420   -1.4460 hc        1 CAH      0.046033
@<TRIPOS>BOND
     1    1    2 1   
     2    1    8 1   
     3    1    9 1   
     4    1   12 1   
     5    2    3 2   
     6    2    4 1   
     7    4    5 1   
     8    4   13 1   
     9    4   14 1   
    10    5    6 1   
    11    5    9 1   
    12    5   15 1   
    13    6    7 1   
    14    6    8 1   
    15    6   16 1   
    16    7   17 1   
    17    8   18 1   
    18    8   19 1   
    19    9   10 1   
    20    9   11 1   
    21   10   20 1   
    22   10   21 1   
    23   10   22 1   
    24   11   23 1   
    25   11   24 1   
    26   11   25 1   
    27   12   26 1   
    28   12   27 1   
    29   12   28 1   
@<TRIPOS>SUBSTRUCTURE
     1 CAH         1 TEMP              0 ****  ****    0 ROOT
