@<TRIPOS>MOLECULE
molecule
   28    29     1     0     0
SMALL
bcc


@<TRIPOS>ATOM
      1 C1           0.0000     0.0000     0.0000 c3         1 CAH      -0.168000
      2 C2           1.5370     0.0000     0.0000 c          1 CAH       0.580100
      3 O2           2.2690    -0.0010    -0.9610 o          1 CAH      -0.507100
      4 C3           1.9400     0.0000     1.4660 c3         1 CAH      -0.189400
      5 C4           0.5930    -0.0080     2.2510 c3         1 CAH      -0.076700
      6 C5          -0.0150     1.4090     2.0250 c3         1 CAH       0.141100
      7 O5          -1.1780     1.6160     2.8290 oh         1 CAH      -0.598800
      8 C6          -0.3910     1.4180     0.5110 c3         1 CAH      -0.083400
      9 C7          -0.2920    -0.8620     1.2770 c3         1 CAH      -0.057000
     10 C8           0.2260    -2.2940     1.1370 c3         1 CAH      -0.075600
     11 C9          -1.7710    -0.8300     1.6670 c3         1 CAH      -0.075600
     12 C10         -0.6660    -0.4650    -1.2970 c3         1 CAH      -0.056100
     13 H31          2.5170    -0.8870     1.6980 hc         1 CAH       0.072200
     14 H32          2.5080     0.8920     1.7010 hc         1 CAH       0.072200
     15 H4           0.6360    -0.3550     3.2770 hc         1 CAH       0.087700
     16 H5           0.7250     2.1720     2.2320 h1         1 CAH       0.035700
     17 HO5         -1.0720     2.4030     3.3380 ho         1 CAH       0.400000
     18 H61         -1.4550     1.5850     0.3870 hc         1 CAH       0.061700
     19 H62          0.1740     2.1780    -0.0140 hc         1 CAH       0.061700
     20 H81          0.4650    -2.6890     2.1160 hc         1 CAH       0.040700
     21 H82          1.1150    -2.2980     0.5180 hc         1 CAH       0.040700
     22 H83         -0.5370    -2.9100     0.6760 hc         1 CAH       0.040700
     23 H91         -1.8610    -0.8460     2.7460 hc         1 CAH       0.040700
     24 H92         -2.2270     0.0740     1.2800 hc         1 CAH       0.040700
     25 H93         -2.2730    -1.6940     1.2490 hc         1 CAH       0.040700
     26 H101        -1.7340    -0.5560    -1.1420 hc         1 CAH       0.043700
     27 H102        -0.2600    -1.4270    -1.5860 hc         1 CAH       0.043700
     28 H103        -0.4750     0.2580    -2.0800 hc         1 CAH       0.043700
@<TRIPOS>BOND
     1     1     2 1
     2     1     8 1
     3     1     9 1
     4     1    12 1
     5     2     3 2
     6     2     4 1
     7     4     5 1
     8     4    13 1
     9     4    14 1
    10     5     6 1
    11     5     9 1
    12     5    15 1
    13     6     7 1
    14     6     8 1
    15     6    16 1
    16     7    17 1
    17     8    18 1
    18     8    19 1
    19     9    10 1
    20     9    11 1
    21    10    20 1
    22    10    21 1
    23    10    22 1
    24    11    23 1
    25    11    24 1
    26    11    25 1
    27    12    26 1
    28    12    27 1
    29    12    28 1
@<TRIPOS>SUBSTRUCTURE
     1 CAH         1 TEMP              0 ****  ****    0 ROOT
