@<TRIPOS>MOLECULE
CAK
   29    29     1     0     0
SMALL
bcc


@<TRIPOS>ATOM
      1 OAN        -0.3370   -2.2450   -1.2710 o         1 CAK     -0.930500
      2 PAM         0.2270   -0.8470   -1.1920 p5        1 CAK      1.330900
      3 OAO        -0.0970   -0.0080    0.0040 o         1 CAK     -0.930500
      4 OAP         0.2550   -0.1630   -2.5430 o         1 CAK     -0.930500
      5 OAL         1.9000   -1.2510   -0.9890 os        1 CAK     -0.577200
      6 CAK         2.7080   -1.2280   -2.0950 c3        1 CAK      0.240400
      7 CAF         2.6330   -2.4980   -2.9880 c3        1 CAK     -0.109700
      8 CAA         1.4890   -2.3610   -3.9980 c3        1 CAK      0.092100
      9 OAG         1.6360   -1.2310   -4.8400 oh        1 CAK     -0.668800
     10 CAB         1.3990   -3.6000   -4.9030 c3        1 CAK      0.156100
     11 OAH         0.3960   -3.4540   -5.8970 oh        1 CAK     -0.620800
     12 CAC         1.0800   -4.8090   -4.0110 c3        1 CAK      0.088100
     13 OAI         1.0580   -5.9790   -4.8270 oh        1 CAK     -0.617800
     14 CAD         2.1440   -4.9710   -2.9100 c3        1 CAK      0.120100
     15 OAJ         1.7550   -6.0600   -2.0720 oh        1 CAK     -0.654800
     16 CAE         2.3370   -3.6980   -2.1100 c3        1 CAK     -0.140400
     17 HAK1        2.4790   -0.3280   -2.7330 h1        1 CAK     -0.014800
     18 HAK2        3.7810   -1.1530   -1.7400 h1        1 CAK     -0.014800
     19 HAF         3.6060   -2.6170   -3.5300 hc        1 CAK      0.000700
     20 HAA         0.5310   -2.2410   -3.3800 h1        1 CAK      0.144700
     21 HAG         1.2080   -0.4980   -4.3510 ho        1 CAK      0.474000
     22 HAB         2.3550   -3.7770   -5.4650 h1        1 CAK      0.041700
     23 HAH        -0.1440   -2.6950   -5.6390 ho        1 CAK      0.413000
     24 HAC         0.0660   -4.6690   -3.5410 h1        1 CAK      0.070700
     25 HAI         1.0180   -6.7200   -4.2100 ho        1 CAK      0.387000
     26 HAD         3.1090   -5.3190   -3.3760 h1        1 CAK      0.038700
     27 HAJ         1.0950   -5.7110   -1.4600 ho        1 CAK      0.417000
     28 HAE1        1.3860   -3.4340   -1.5300 hc        1 CAK      0.097200
     29 HAE2        3.1620   -3.8470   -1.3700 hc        1 CAK      0.097200
@<TRIPOS>BOND
     1    1    2 1   
     2    2    3 1   
     3    2    4 1   
     4    2    5 1   
     5    5    6 1   
     6    6    7 1   
     7    6   17 1   
     8    6   18 1   
     9    7    8 1   
    10    7   16 1   
    11    7   19 1   
    12    8    9 1   
    13    8   10 1   
    14    8   20 1   
    15    9   21 1   
    16   10   11 1   
    17   10   12 1   
    18   10   22 1   
    19   11   23 1   
    20   12   13 1   
    21   12   14 1   
    22   12   24 1   
    23   13   25 1   
    24   14   15 1   
    25   14   16 1   
    26   14   26 1   
    27   15   27 1   
    28   16   28 1   
    29   16   29 1   
@<TRIPOS>SUBSTRUCTURE
     1 CAK         1 TEMP              0 ****  ****    0 ROOT
