@<TRIPOS>MOLECULE
molecule
   29    29     1     0     0
SMALL
bcc


@<TRIPOS>ATOM
      1 OAN          0.0000     0.0000     0.0000 o          1 CAK      -0.910500
      2 PAM          1.4800     0.0000     0.0000 p5         1 CAK       1.153900
      3 OAO          2.0180     0.0000     1.5180 o          1 CAK      -0.910500
      4 OAP          2.0180     1.3140    -0.7600 o          1 CAK      -0.910500
      5 OAL          2.0160    -1.3160    -0.7590 os         1 CAK      -0.545200
      6 CAK          1.4140    -1.3200    -2.0540 c3         1 CAK       0.167400
      7 CAF          1.8850    -2.5510    -2.8320 c3         1 CAK      -0.078700
      8 CAA          1.3400    -2.4910    -4.2600 c3         1 CAK       0.143100
      9 OAG          1.8200    -1.3090    -4.9030 oh         1 CAK      -0.589800
     10 CAB          1.8100    -3.7230    -5.0370 c3         1 CAK       0.111100
     11 OAH          1.3020    -3.6670    -6.3710 oh         1 CAK      -0.621800
     12 CAC          1.2950    -4.9870    -4.3480 c3         1 CAK       0.131100
     13 OAI          1.7350    -6.1380    -5.0740 oh         1 CAK      -0.620800
     14 CAD          1.8410    -5.0470    -2.9190 c3         1 CAK       0.127100
     15 OAJ          1.3600    -6.2300    -2.2760 oh         1 CAK      -0.618800
     16 CAE          1.3700    -3.8160    -2.1420 c3         1 CAK      -0.086400
     17 HAK1         0.3360    -1.3480    -1.9510 h1         1 CAK       0.048700
     18 HAK2         1.7030    -0.4230    -2.5890 h1         1 CAK       0.048700
     19 HAF          2.9670    -2.5730    -2.8610 hc         1 CAK       0.057700
     20 HAA          0.2570    -2.4770    -4.2310 h1         1 CAK       0.041700
     21 HAG          1.1240    -0.9200    -5.4060 ho         1 CAK       0.395000
     22 HAB          2.8930    -3.7410    -5.0600 h1         1 CAK       0.049700
     23 HAH          2.0190    -3.6880    -6.9820 ho         1 CAK       0.395000
     24 HAC          0.2130    -4.9650    -4.3180 h1         1 CAK       0.051700
     25 HAI          0.9850    -6.6290    -5.3680 ho         1 CAK       0.394000
     26 HAD          2.9230    -5.0610    -2.9490 h1         1 CAK       0.036700
     27 HAJ          2.0650    -6.6370    -1.7990 ho         1 CAK       0.394000
     28 HAE1         1.7590    -3.8580    -1.1320 hc         1 CAK       0.074200
     29 HAE2         0.2870    -3.7970    -2.1180 hc         1 CAK       0.074200
@<TRIPOS>BOND
     1     1     2 1
     2     2     3 1
     3     2     4 1
     4     2     5 1
     5     5     6 1
     6     6     7 1
     7     6    17 1
     8     6    18 1
     9     7     8 1
    10     7    16 1
    11     7    19 1
    12     8     9 1
    13     8    10 1
    14     8    20 1
    15     9    21 1
    16    10    11 1
    17    10    12 1
    18    10    22 1
    19    11    23 1
    20    12    13 1
    21    12    14 1
    22    12    24 1
    23    13    25 1
    24    14    15 1
    25    14    16 1
    26    14    26 1
    27    15    27 1
    28    16    28 1
    29    16    29 1
@<TRIPOS>SUBSTRUCTURE
     1 CAK         1 TEMP              0 ****  ****    0 ROOT
