@<TRIPOS>MOLECULE
CAM
   27    28     1     0     0
SMALL
bcc


@<TRIPOS>ATOM
      1 C1         -0.0290    0.0050    0.0050 c3        1 CAM     -0.153000
      2 C2          1.5080   -0.0030    0.0070 c         1 CAM      0.576100
      3 O           2.2500   -0.0150   -0.9690 o         1 CAM     -0.520100
      4 C3          1.9300    0.0260    1.4690 c3        1 CAM     -0.185400
      5 C4          0.5780    0.0760    2.2090 c3        1 CAM     -0.066700
      6 C5          0.0010    1.4810    1.9440 c3        1 CAM     -0.084400
      7 C6         -0.3960    1.4410    0.4580 c3        1 CAM     -0.072400
      8 C7         -0.3220   -0.8300    1.3030 c3        1 CAM     -0.051000
      9 C8          0.1670   -2.2600    1.2160 c3        1 CAM     -0.083600
     10 C9         -1.7760   -0.8460    1.7120 c3        1 CAM     -0.083600
     11 C10        -0.6780   -0.4490   -1.2600 c3        1 CAM     -0.069100
     12 H31         2.5120   -0.8900    1.7320 hc        1 CAM      0.074700
     13 H32         2.5640    0.9190    1.6840 hc        1 CAM      0.074700
     14 H4          0.6240   -0.2160    3.2740 hc        1 CAM      0.073700
     15 H51         0.7600    2.2740    2.1430 hc        1 CAM      0.048200
     16 H52        -0.8810    1.6800    2.5970 hc        1 CAM      0.048200
     17 H61         0.1620    2.2010   -0.1400 hc        1 CAM      0.053200
     18 H62        -1.4880    1.6230    0.3190 hc        1 CAM      0.053200
     19 H81        -0.5580   -2.8780    0.6320 hc        1 CAM      0.039200
     20 H82         0.2570   -2.6920    2.2430 hc        1 CAM      0.039200
     21 H83         1.1610   -2.3330    0.7120 hc        1 CAM      0.039200
     22 H91        -1.8870   -1.3870    2.6830 hc        1 CAM      0.039200
     23 H92        -2.1940    0.1810    1.8330 hc        1 CAM      0.039200
     24 H93        -2.3810   -1.3770    0.9360 hc        1 CAM      0.039200
     25 H101       -0.4500   -1.5270   -1.4460 hc        1 CAM      0.044700
     26 H102       -0.2950    0.1480   -2.1240 hc        1 CAM      0.044700
     27 H103       -1.7870   -0.3250   -1.1960 hc        1 CAM      0.044700
@<TRIPOS>BOND
     1    1    2 1   
     2    1    7 1   
     3    1    8 1   
     4    1   11 1   
     5    2    3 2   
     6    2    4 1   
     7    4    5 1   
     8    4   12 1   
     9    4   13 1   
    10    5    6 1   
    11    5    8 1   
    12    5   14 1   
    13    6    7 1   
    14    6   15 1   
    15    6   16 1   
    16    7   17 1   
    17    7   18 1   
    18    8    9 1   
    19    8   10 1   
    20    9   19 1   
    21    9   20 1   
    22    9   21 1   
    23   10   22 1   
    24   10   23 1   
    25   10   24 1   
    26   11   25 1   
    27   11   26 1   
    28   11   27 1   
@<TRIPOS>SUBSTRUCTURE
     1 CAM         1 TEMP              0 ****  ****    0 ROOT
