@<TRIPOS>MOLECULE
molecule
   27    28     1     0     0
SMALL
bcc


@<TRIPOS>ATOM
      1 C1           0.0000     0.0000     0.0000 c3         1 CAM      -0.170000
      2 C2           1.5330     0.0000     0.0000 c          1 CAM       0.585100
      3 O            2.2670    -0.0110    -0.9590 o          1 CAM      -0.508100
      4 C3           1.9270     0.0000     1.4830 c3         1 CAM      -0.185400
      5 C4           0.5740     0.0290     2.2560 c3         1 CAM      -0.070700
      6 C5          -0.0110     1.4510     1.9960 c3         1 CAM      -0.084400
      7 C6          -0.3970     1.4410     0.4990 c3         1 CAM      -0.069400
      8 C7          -0.3170    -0.8300     1.2910 c3         1 CAM      -0.064000
      9 C8           0.1800    -2.2730     1.1830 c3         1 CAM      -0.078100
     10 C9          -1.7980    -0.7690     1.6680 c3         1 CAM      -0.078100
     11 C10         -0.6810    -0.4700    -1.2870 c3         1 CAM      -0.057100
     12 H31          2.5140     0.8800     1.7170 hc         1 CAM       0.070700
     13 H32          2.4810    -0.8990     1.7260 hc         1 CAM       0.070700
     14 H4           0.6030    -0.2980     3.2880 hc         1 CAM       0.079700
     15 H51         -0.8860     1.6180     2.6120 hc         1 CAM       0.047200
     16 H52          0.7390     2.2080     2.1890 hc         1 CAM       0.047200
     17 H61         -1.4620     1.6020     0.3820 hc         1 CAM       0.051700
     18 H62          0.1630     2.1960    -0.0410 hc         1 CAM       0.051700
     19 H81         -0.6060    -2.8970     0.7750 hc         1 CAM       0.038700
     20 H82          1.0450    -2.3100     0.5310 hc         1 CAM       0.038700
     21 H83          0.4540    -2.6360     2.1670 hc         1 CAM       0.038700
     22 H91         -2.3430    -1.5220     1.1130 hc         1 CAM       0.038700
     23 H92         -2.1910     0.2120     1.4280 hc         1 CAM       0.038700
     24 H93         -1.9080    -0.9520     2.7300 hc         1 CAM       0.038700
     25 H101        -0.4290     0.2040    -2.0960 hc         1 CAM       0.042700
     26 H102        -0.3420    -1.4700    -1.5310 hc         1 CAM       0.042700
     27 H103        -1.7550    -0.4770    -1.1450 hc         1 CAM       0.042700
@<TRIPOS>BOND
     1     1     2 1
     2     1     7 1
     3     1     8 1
     4     1    11 1
     5     2     3 2
     6     2     4 1
     7     4     5 1
     8     4    12 1
     9     4    13 1
    10     5     6 1
    11     5     8 1
    12     5    14 1
    13     6     7 1
    14     6    15 1
    15     6    16 1
    16     7    17 1
    17     7    18 1
    18     8     9 1
    19     8    10 1
    20     9    19 1
    21     9    20 1
    22     9    21 1
    23    10    22 1
    24    10    23 1
    25    10    24 1
    26    11    25 1
    27    11    26 1
    28    11    27 1
@<TRIPOS>SUBSTRUCTURE
     1 CAM         1 TEMP              0 ****  ****    0 ROOT
