@<TRIPOS>MOLECULE
CAN
   20    19     1     0     0
SMALL
bcc


@<TRIPOS>ATOM
      1 N           0.5500   -0.8720   -0.4600 n4        1 CAN     -0.823600
      2 CA          0.6070    0.3710    0.3660 c3        1 CAN     -0.043500
      3 CB          0.3070    0.1070    1.8460 c3        1 CAN     -0.128400
      4 CG          0.6130    1.3250    2.7020 c3        1 CAN      0.107400
      5 OG          1.8310    1.1530    3.4780 os        1 CAN     -0.223100
      6 NZ          3.0280    1.4720    2.9050 n4        1 CAN     -0.641100
      7 C           2.0640    0.9520    0.3140 c         1 CAN      0.893600
      8 O           2.9940    0.1040    0.3950 o         1 CAN     -0.778300
      9 OXT         2.1750    2.1990    0.3740 o         1 CAN     -0.778300
     10 HN1         0.4410   -0.6180   -1.4460 hn        1 CAN      0.463133
     11 HN2         1.4550   -1.3630   -0.3450 hn        1 CAN      0.463133
     12 HA         -0.1220    1.1180   -0.0590 hx        1 CAN      0.124700
     13 HB1        -0.7790   -0.1470    1.9740 hc        1 CAN      0.085200
     14 HB2         0.9120   -0.7640    2.2180 hc        1 CAN      0.085200
     15 HG1         0.6410    2.2780    2.1060 h1        1 CAN      0.125200
     16 HG2        -0.1320    1.4120    3.5480 h1        1 CAN      0.125200
     17 HNZ1        2.9500    2.2980    2.2680 hn        1 CAN      0.492800
     18 HNZ2        3.6660    1.6720    3.6930 hn        1 CAN      0.492800
     19 HN3        -0.2160   -1.4800   -0.1720 hn        1 CAN      0.463133
     20 HZ3         3.3800    0.6640    2.3420 hn        1 CAN      0.492800
@<TRIPOS>BOND
     1    1    2 1
     2    1   10 1
     3    1   11 1
     4    1   19 1
     5    2    3 1
     6    2    7 1
     7    2   12 1
     8    3    4 1
     9    3   13 1
    10    3   14 1
    11    4    5 1
    12    4   15 1
    13    4   16 1
    14    5    6 1
    15    6   17 1
    16    6   18 1
    17    6   20 1
    18    7    8 1
    19    7    9 1
@<TRIPOS>SUBSTRUCTURE
     1 CAN         1 TEMP              0 ****  ****    0 ROOT
