@<TRIPOS>MOLECULE
molecule
   14    14     1     0     0
SMALL
bcc


@<TRIPOS>ATOM
      1 C1           0.0000     0.0000     0.0000 ca         1 CAQ      -0.124000
      2 C2           1.3830     0.0000     0.0000 ca         1 CAQ      -0.152500
      3 C3           2.0750     0.0000     1.2000 ca         1 CAQ       0.090600
      4 O3           3.4340     0.0010     1.2010 oh         1 CAQ      -0.511100
      5 C4           1.3760    -0.0060     2.4020 ca         1 CAQ       0.090600
      6 O4           2.0520    -0.0060     3.5820 oh         1 CAQ      -0.511100
      7 C5          -0.0090     0.0000     2.3950 ca         1 CAQ      -0.152500
      8 C6          -0.6930    -0.0010     1.1950 ca         1 CAQ      -0.124000
      9 H1          -0.5410    -0.0000    -0.9390 ha         1 CAQ       0.134000
     10 H2           1.9250     0.0010    -0.9380 ha         1 CAQ       0.141000
     11 HO3          3.7480     0.8590     0.9690 ho         1 CAQ       0.422000
     12 HO4          2.0040    -0.8630     3.9720 ho         1 CAQ       0.422000
     13 H5          -0.5550    -0.0030     3.3310 ha         1 CAQ       0.141000
     14 H6          -1.7770     0.0010     1.1910 ha         1 CAQ       0.134000
@<TRIPOS>BOND
     1     1     2 ar
     2     1     8 ar
     3     1     9 1
     4     2     3 ar
     5     2    10 1
     6     3     4 1
     7     3     5 ar
     8     4    11 1
     9     5     6 1
    10     5     7 ar
    11     6    12 1
    12     7     8 ar
    13     7    13 1
    14     8    14 1
@<TRIPOS>SUBSTRUCTURE
     1 CAQ         1 TEMP              0 ****  ****    0 ROOT
