@<TRIPOS>MOLECULE
CAQ
   14    14     1     0     0
SMALL
bcc


@<TRIPOS>ATOM
      1 C1          0.0250   -0.0510    0.0030 ca        1 CAQ     -0.126000
      2 C2          1.4200   -0.1030    0.0020 ca        1 CAQ     -0.185000
      3 C3          2.1170   -0.1590    1.2120 ca        1 CAQ      0.101100
      4 O3          3.4890   -0.2110    1.2900 oh        1 CAQ     -0.475100
      5 C4          1.4020   -0.1620    2.4340 ca        1 CAQ      0.101100
      6 O4          2.1420   -0.2180    3.5920 oh        1 CAQ     -0.475100
      7 C5          0.0050   -0.1100    2.4200 ca        1 CAQ     -0.185000
      8 C6         -0.6770   -0.0550    1.2040 ca        1 CAQ     -0.126000
      9 H1         -0.5160   -0.0070   -0.9530 ha        1 CAQ      0.135000
     10 H2          1.9740   -0.1000   -0.9480 ha        1 CAQ      0.136000
     11 HO3         3.8320   -0.2020    0.3840 ho        1 CAQ      0.415000
     12 HO4         1.5200   -0.2140    4.3350 ho        1 CAQ      0.415000
     13 H5         -0.5510   -0.1130    3.3690 ha        1 CAQ      0.136000
     14 H6         -1.7760   -0.0140    1.2010 ha        1 CAQ      0.135000
@<TRIPOS>BOND
     1    1    2 ar  
     2    1    8 ar  
     3    1    9 1   
     4    2    3 ar  
     5    2   10 1   
     6    3    4 1   
     7    3    5 ar  
     8    4   11 1   
     9    5    6 1   
    10    5    7 ar  
    11    6   12 1   
    12    7    8 ar  
    13    7   13 1   
    14    8   14 1   
@<TRIPOS>SUBSTRUCTURE
     1 CAQ         1 TEMP              0 ****  ****    0 ROOT
