@<TRIPOS>MOLECULE
molecule
   50    49     1     0     0
SMALL
bcc


@<TRIPOS>ATOM
      1 C1           0.0000     0.0000     0.0000 c3         1 CAT       0.101800
      2 C2           1.5300     0.0000     0.0000 c3         1 CAT      -0.110400
      3 C3           2.0400     0.0000     1.4430 c3         1 CAT      -0.077400
      4 C4           3.5700     0.0010     1.4430 c3         1 CAT      -0.080400
      5 C5           4.0800     0.0010     2.8860 c3         1 CAT      -0.080400
      6 C6           5.6100     0.0020     2.8860 c3         1 CAT      -0.081400
      7 C7           6.1200     0.0020     4.3280 c3         1 CAT      -0.081400
      8 C8           7.6500     0.0030     4.3280 c3         1 CAT      -0.081400
      9 C9           8.1600     0.0030     5.7710 c3         1 CAT      -0.081400
     10 C10          9.6900     0.0030     5.7710 c3         1 CAT      -0.081400
     11 C11         10.1990     0.0030     7.2130 c3         1 CAT      -0.083400
     12 C12         11.7300     0.0040     7.2130 c3         1 CAT      -0.092100
     13 CA1          0.0010    -1.2000    -2.0780 c3         1 CAT       0.094100
     14 CB1         -1.9580    -0.0010    -1.3850 c3         1 CAT       0.094100
     15 CC1          0.0000     1.1990    -2.0780 c3         1 CAT       0.094100
     16 NE1         -0.4890    -0.0000    -1.3860 n4         1 CAT      -0.577800
     17 H11         -0.3610     0.8850     0.5110 hx         1 CAT       0.101700
     18 H12         -0.3610    -0.8840     0.5110 hx         1 CAT       0.101700
     19 H21          1.8910    -0.8840    -0.5110 hc         1 CAT       0.061200
     20 H22          1.8910     0.8840    -0.5110 hc         1 CAT       0.061200
     21 H31          1.6790     0.8840     1.9540 hc         1 CAT       0.055700
     22 H32          1.6800    -0.8850     1.9530 hc         1 CAT       0.055700
     23 H41          3.9320    -0.8830     0.9320 hc         1 CAT       0.047700
     24 H42          3.9310     0.8860     0.9320 hc         1 CAT       0.047700
     25 H51          3.7190     0.8850     3.3970 hc         1 CAT       0.046700
     26 H52          3.7200    -0.8840     3.3960 hc         1 CAT       0.046700
     27 H61          5.9710     0.8870     2.3750 hc         1 CAT       0.043700
     28 H62          5.9720    -0.8820     2.3750 hc         1 CAT       0.043700
     29 H71          5.7590    -0.8830     4.8380 hc         1 CAT       0.043700
     30 H72          5.7580     0.8860     4.8390 hc         1 CAT       0.043700
     31 H81          8.0100     0.8880     3.8170 hc         1 CAT       0.042700
     32 H82          8.0110    -0.8810     3.8170 hc         1 CAT       0.042700
     33 H91          7.7990    -0.8810     6.2810 hc         1 CAT       0.042700
     34 H92          7.7990     0.8870     6.2810 hc         1 CAT       0.042700
     35 H101        10.0510     0.8880     5.2600 hc         1 CAT       0.041700
     36 H102        10.0510    -0.8820     5.2600 hc         1 CAT       0.041700
     37 H111         9.8390    -0.8820     7.7230 hc         1 CAT       0.040700
     38 H112         9.8380     0.8870     7.7240 hc         1 CAT       0.040700
     39 H121        12.0920    -0.8800     6.7030 hc         1 CAT       0.034700
     40 H122        12.0910     0.0040     8.2350 hc         1 CAT       0.034700
     41 H123        12.0910     0.8890     6.7030 hc         1 CAT       0.034700
     42 HA11        -0.6240    -1.4000    -2.9400 hx         1 CAT       0.098589
     43 HA12         1.0220    -1.0380    -2.4020 hx         1 CAT       0.098589
     44 HA13        -0.0330    -2.0460    -1.4020 hx         1 CAT       0.098589
     45 HB11        -2.3200     0.8830    -0.8750 hx         1 CAT       0.098589
     46 HB12        -2.3200    -0.0010    -2.4070 hx         1 CAT       0.098589
     47 HB13        -2.3190    -0.8860    -0.8750 hx         1 CAT       0.098589
     48 HC11        -0.6240     1.3990    -2.9400 hx         1 CAT       0.098589
     49 HC12        -0.0350     2.0450    -1.4020 hx         1 CAT       0.098589
     50 HC13         1.0210     1.0380    -2.4020 hx         1 CAT       0.098589
@<TRIPOS>BOND
     1     1     2 1
     2     1    16 1
     3     1    17 1
     4     1    18 1
     5     2     3 1
     6     2    19 1
     7     2    20 1
     8     3     4 1
     9     3    21 1
    10     3    22 1
    11     4     5 1
    12     4    23 1
    13     4    24 1
    14     5     6 1
    15     5    25 1
    16     5    26 1
    17     6     7 1
    18     6    27 1
    19     6    28 1
    20     7     8 1
    21     7    29 1
    22     7    30 1
    23     8     9 1
    24     8    31 1
    25     8    32 1
    26     9    10 1
    27     9    33 1
    28     9    34 1
    29    10    11 1
    30    10    35 1
    31    10    36 1
    32    11    12 1
    33    11    37 1
    34    11    38 1
    35    12    39 1
    36    12    40 1
    37    12    41 1
    38    13    16 1
    39    13    42 1
    40    13    43 1
    41    13    44 1
    42    14    16 1
    43    14    45 1
    44    14    46 1
    45    14    47 1
    46    15    16 1
    47    15    48 1
    48    15    49 1
    49    15    50 1
@<TRIPOS>SUBSTRUCTURE
     1 CAT         1 TEMP              0 ****  ****    0 ROOT
