@<TRIPOS>MOLECULE
CAU
   44    46     1     0     0
SMALL
bcc


@<TRIPOS>ATOM
      1 O17          0.0000     0.0000     0.0000 oh         1 CAU      -0.565800
      2 C16          1.4290     0.0000     0.0000 c3         1 CAU       0.187100
      3 C18          1.9390     0.0000     1.4430 c3         1 CAU       0.124800
      4 N19          1.4490     1.1990     2.1350 n7         1 CAU      -0.570200
      5 C20          1.9200     1.2330     3.5260 c3         1 CAU       0.114500
      6 C21          1.9540     2.6810     4.0190 c3         1 CAU       0.001900
      7 C22          0.9710     0.4170     4.4060 c3         1 CAU       0.001900
      8 C15          1.9380    -1.2500    -0.7220 c3         1 CAU       0.179400
      9 O14          1.5610    -1.1920    -2.0980 os         1 CAU      -0.298900
     10 C13          1.9380    -2.2330    -2.8860 ca         1 CAU       0.221100
     11 C12          2.6570    -3.2860    -2.3480 ca         1 CAU      -0.260000
     12 C11          3.0420    -4.3470    -3.1500 ca         1 CAU      -0.023000
     13 C10          2.7180    -4.3690    -4.4900 ca         1 CAU      -0.170000
     14 C8           1.9960    -3.3190    -5.0520 ca         1 CAU      -0.138200
     15 C9           1.5990    -2.2470    -4.2410 cp         1 CAU      -0.122000
     16 N7           1.5440    -3.0850    -6.3380 na         1 CAU       0.326700
     17 C3           0.8630    -1.8810    -6.3950 ca         1 CAU      -0.185200
     18 C4           0.8640    -1.3120    -5.1120 cp         1 CAU      -0.062000
     19 C2           0.2310    -1.2120    -7.4380 ca         1 CAU      -0.120000
     20 C1          -0.3830     0.0010    -7.2070 ca         1 CAU      -0.076000
     21 C6          -0.3770     0.5650    -5.9400 ca         1 CAU      -0.138000
     22 C5           0.2370    -0.0880    -4.8930 ca         1 CAU      -0.038000
     23 H17         -0.3140     0.7540    -0.4710 ho         1 CAU       0.393000
     24 H16          1.7900     0.8840    -0.5110 h1         1 CAU       0.003700
     25 H181         3.0220     0.0000     1.4430 h1         1 CAU       0.016200
     26 H182         1.5780    -0.8850     1.9530 h1         1 CAU       0.016200
     27 H191         1.7690     2.0160     1.6540 hn         1 CAU       0.249800
     28 H20          2.9160     0.8100     3.5810 h1         1 CAU       0.004700
     29 H211         2.7270     3.2250     3.4890 hc         1 CAU       0.007700
     30 H212         2.1650     2.6960     5.0810 hc         1 CAU       0.007700
     31 H213         0.9940     3.1480     3.8350 hc         1 CAU       0.007700
     32 H221         1.1430    -0.6390     4.2400 hc         1 CAU       0.007700
     33 H222        -0.0540     0.6600     4.1530 hc         1 CAU       0.007700
     34 H223         1.1510     0.6530     5.4480 hc         1 CAU       0.007700
     35 H151         3.0180    -1.2960    -0.6450 h1         1 CAU       0.012200
     36 H152         1.5060    -2.1320    -0.2650 h1         1 CAU       0.012200
     37 H12          2.9180    -3.2810    -1.2960 ha         1 CAU       0.122000
     38 H11          3.6050    -5.1670    -2.7210 ha         1 CAU       0.098000
     39 H10          3.0260    -5.2050    -5.1070 ha         1 CAU       0.104000
     40 H7           1.6890    -3.6980    -7.1160 hn         1 CAU       0.119700
     41 H2           0.2200    -1.6440    -8.4310 ha         1 CAU       0.101000
     42 H1          -0.8680     0.5210    -8.0240 ha         1 CAU       0.100000
     43 H6          -0.8630     1.5180    -5.7720 ha         1 CAU       0.103000
     44 H5           0.2400     0.3550    -3.9040 ha         1 CAU       0.108000
@<TRIPOS>BOND
     1     1     2 1   
     2     1    23 1   
     3     2     3 1   
     4     2     8 1   
     5     2    24 1   
     6     3     4 1   
     7     3    25 1   
     8     3    26 1   
     9     4     5 1   
    10     4    27 1   
    11     5     6 1   
    12     5     7 1   
    13     5    28 1   
    14     6    29 1   
    15     6    30 1   
    16     6    31 1   
    17     7    32 1   
    18     7    33 1   
    19     7    34 1   
    20     8     9 1   
    21     8    35 1   
    22     8    36 1   
    23     9    10 1   
    24    10    11 ar  
    25    10    15 ar  
    26    11    12 ar  
    27    11    37 1   
    28    12    13 ar  
    29    12    38 1   
    30    13    14 ar  
    31    13    39 1   
    32    14    15 ar  
    33    14    16 1   
    34    15    18 1   
    35    16    17 1   
    36    16    40 1   
    37    17    18 ar  
    38    17    19 ar  
    39    18    22 ar  
    40    19    20 ar  
    41    19    41 1   
    42    20    21 ar  
    43    20    42 1   
    44    21    22 ar  
    45    21    43 1   
    46    22    44 1   
@<TRIPOS>SUBSTRUCTURE
     1 CAU         1 TEMP              0 ****  ****    0 ROOT
