@<TRIPOS>MOLECULE
CAW
   47    49     1     0     0
SMALL
bcc


@<TRIPOS>ATOM
      1 C9           0.0000     0.0000     0.0000 ca         1 CAW      -0.073000
      2 C14          1.3890     0.0000     0.0000 ca         1 CAW      -0.124000
      3 C13          2.1070     0.0000     1.1560 ca         1 CAW      -0.049000
      4 C12          1.4580    -0.0000     2.4040 ca         1 CAW      -0.051000
      5 C18          2.1850    -0.0000     3.6050 ca         1 CAW      -0.096000
      6 C17          1.5210     0.0000     4.7950 ca         1 CAW      -0.095000
      7 C16          0.1290     0.0000     4.8380 ca         1 CAW      -0.092000
      8 C15         -0.6080    -0.0000     3.6910 ca         1 CAW      -0.111000
      9 C11          0.0420     0.0000     2.4510 ca         1 CAW       0.016000
     10 C10         -0.7060     0.0010     1.1970 ca         1 CAW      -0.148600
     11 C8          -2.1800     0.0010     1.2000 c          1 CAW       0.599700
     12 O8          -2.7860    -0.1050     2.2480 o          1 CAW      -0.555100
     13 N2          -2.8560     0.1200     0.0390 ns         1 CAW      -0.179500
     14 C7          -4.2040     0.1200     0.0420 c          1 CAW       0.567100
     15 O7          -4.8100     0.0140     1.0910 o          1 CAW      -0.612100
     16 N1          -4.8800     0.2380    -1.1180 ns         1 CAW      -0.190900
     17 C1          -6.3450     0.2380    -1.1140 c3         1 CAW       0.237500
     18 O5          -6.8230    -1.0850    -1.3650 os         1 CAW      -0.400600
     19 C5          -8.2470    -1.2020    -1.3580 c3         1 CAW       0.173100
     20 C6          -8.6410    -2.6600    -1.6080 c3         1 CAW       0.225400
     21 O6          -8.1890    -3.4680    -0.5200 oh         1 CAW      -0.574800
     22 C4          -8.8360    -0.3190    -2.4610 c3         1 CAW       0.136100
     23 O4         -10.2620    -0.3890    -2.4180 oh         1 CAW      -0.579800
     24 C3          -8.3890     1.1290    -2.2370 c3         1 CAW       0.147100
     25 O3          -8.8730     1.9490    -3.3030 oh         1 CAW      -0.591800
     26 C2          -6.8580     1.1800    -2.2070 c3         1 CAW       0.131100
     27 O2          -6.4300     2.5140    -1.9280 oh         1 CAW      -0.574800
     28 H9          -0.5370    -0.0000    -0.9410 ha         1 CAW       0.094000
     29 H14          1.9160    -0.0000    -0.9470 ha         1 CAW       0.103000
     30 H13          3.1900     0.0000     1.1150 ha         1 CAW       0.104000
     31 H18          3.2680    -0.0000     3.5870 ha         1 CAW       0.105000
     32 H17          2.0830     0.0000     5.7200 ha         1 CAW       0.100000
     33 H16         -0.3760     0.0000     5.7960 ha         1 CAW       0.104000
     34 H15         -1.6900    -0.0000     3.7390 ha         1 CAW       0.173000
     35 H2          -2.3580     0.2330    -0.8210 hn         1 CAW       0.169500
     36 H1          -4.3820     0.2770    -1.9850 hn         1 CAW       0.162500
     37 HA          -6.7080     0.5750    -0.1510 h2         1 CAW       0.066700
     38 HB          -6.4680     0.8640    -3.1670 h1         1 CAW       0.016700
     39 H5          -8.6290    -0.8800    -0.3970 h1         1 CAW       0.037700
     40 H61C        -8.1840    -3.0050    -2.5280 h1         1 CAW      -0.004300
     41 H62C        -9.7180    -2.7330    -1.6890 h1         1 CAW      -0.004300
     42 H4          -8.4810    -0.6610    -3.4260 h1         1 CAW       0.019700
     43 H6          -8.5970    -4.3170    -0.5690 ho         1 CAW       0.387000
     44 HC         -10.5980    -0.5030    -3.2920 ho         1 CAW       0.398000
     45 H3          -8.7800     1.4860    -1.2920 h1         1 CAW       0.032700
     46 HD          -9.4840     2.5810    -2.9610 ho         1 CAW       0.404000
     47 H2A         -6.2350     2.9580    -2.7370 ho         1 CAW       0.398000
@<TRIPOS>BOND
     1     1     2 ar  
     2     1    10 ar  
     3     1    28 1   
     4     2     3 ar  
     5     2    29 1   
     6     3     4 ar  
     7     3    30 1   
     8     4     5 ar  
     9     4     9 ar  
    10     5     6 ar  
    11     5    31 1   
    12     6     7 ar  
    13     6    32 1   
    14     7     8 ar  
    15     7    33 1   
    16     8     9 ar  
    17     8    34 1   
    18     9    10 ar  
    19    10    11 1   
    20    11    12 2   
    21    11    13 1   
    22    13    14 1   
    23    13    35 1   
    24    14    15 2   
    25    14    16 1   
    26    16    17 1   
    27    16    36 1   
    28    17    18 1   
    29    17    26 1   
    30    17    37 1   
    31    18    19 1   
    32    19    20 1   
    33    19    22 1   
    34    19    39 1   
    35    20    21 1   
    36    20    40 1   
    37    20    41 1   
    38    21    43 1   
    39    22    23 1   
    40    22    24 1   
    41    22    42 1   
    42    23    44 1   
    43    24    25 1   
    44    24    26 1   
    45    24    45 1   
    46    25    46 1   
    47    26    27 1   
    48    26    38 1   
    49    27    47 1   
@<TRIPOS>SUBSTRUCTURE
     1 CAW         1 TEMP              0 ****  ****    0 ROOT
