@<TRIPOS>MOLECULE
CAX
   31    31     1     0     0
SMALL
bcc


@<TRIPOS>ATOM
      1 O3          0.0370    0.2070   -0.2080 oh        1 CAX     -0.632300
      2 C10         1.4330    0.1100   -0.0190 c3        1 CAX      0.328900
      3 O2          1.5990   -0.1190    1.3600 oh        1 CAX     -0.632300
      4 C9          1.9380   -1.0230   -0.9110 c3        1 CAX     -0.096400
      5 C1          3.4470   -1.1190   -0.8510 c3        1 CAX     -0.062700
      6 C2          4.0160   -2.4050   -1.5010 c3        1 CAX     -0.045000
      7 C8          3.2080   -2.8140   -2.7250 c3        1 CAX     -0.087100
      8 C7          4.0100   -3.5500   -0.5080 c3        1 CAX     -0.087100
      9 C3          5.4410   -2.0150   -1.9610 c3        1 CAX     -0.164700
     10 C6          6.5430   -2.4030   -1.0030 c3        1 CAX     -0.082100
     11 C4          5.4140   -0.5060   -2.1260 c         1 CAX      0.575100
     12 O1          6.2980    0.1600   -2.6620 o         1 CAX     -0.525100
     13 C5          4.1410    0.0500   -1.5460 c3        1 CAX     -0.189400
     14 HO3        -0.2820    0.9160    0.3640 ho        1 CAX      0.415500
     15 H10         1.9620    1.0820   -0.2280 h2        1 CAX      0.071700
     16 HO2         1.2150   -0.9790    1.5710 ho        1 CAX      0.415500
     17 H91         1.4810   -1.9890   -0.5680 hc        1 CAX      0.064700
     18 H92         1.5860   -0.8330   -1.9580 hc        1 CAX      0.064700
     19 H1          3.7490   -1.1180    0.2350 hc        1 CAX      0.066700
     20 H81         2.1760   -3.1240   -2.4310 hc        1 CAX      0.039033
     21 H82         3.1360   -1.9640   -3.4450 hc        1 CAX      0.039033
     22 H83         3.6980   -3.6770   -3.2370 hc        1 CAX      0.039033
     23 H71         4.4830   -4.4550   -0.9600 hc        1 CAX      0.039033
     24 H72         4.5660   -3.2830    0.4230 hc        1 CAX      0.039033
     25 H73         2.9580   -3.8020   -0.2280 hc        1 CAX      0.039033
     26 H3          5.6590   -2.4840   -2.9600 hc        1 CAX      0.080700
     27 H61         6.6210   -3.5140   -0.9290 hc        1 CAX      0.044367
     28 H62         7.5180   -2.0000   -1.3720 hc        1 CAX      0.044367
     29 H63         6.3530   -1.9900    0.0170 hc        1 CAX      0.044367
     30 H51         4.3640    0.8800   -0.8300 hc        1 CAX      0.078200
     31 H52         3.5110    0.4690   -2.3720 hc        1 CAX      0.078200
@<TRIPOS>BOND
     1    1    2 1   
     2    1   14 1   
     3    2    3 1   
     4    2    4 1   
     5    2   15 1   
     6    3   16 1   
     7    4    5 1   
     8    4   17 1   
     9    4   18 1   
    10    5    6 1   
    11    5   13 1   
    12    5   19 1   
    13    6    7 1   
    14    6    8 1   
    15    6    9 1   
    16    7   20 1   
    17    7   21 1   
    18    7   22 1   
    19    8   23 1   
    20    8   24 1   
    21    8   25 1   
    22    9   10 1   
    23    9   11 1   
    24    9   26 1   
    25   10   27 1   
    26   10   28 1   
    27   10   29 1   
    28   11   12 2   
    29   11   13 1   
    30   13   30 1   
    31   13   31 1   
@<TRIPOS>SUBSTRUCTURE
     1 CAX         1 TEMP              0 ****  ****    0 ROOT
