@<TRIPOS>MOLECULE
molecule
   31    31     1     0     0
SMALL
bcc


@<TRIPOS>ATOM
      1 O3           0.0000     0.0000     0.0000 oh         1 CAX      -0.619800
      2 C10          1.4290     0.0000     0.0000 c3         1 CAX       0.340900
      3 O2           1.9040     0.0000     1.3460 oh         1 CAX      -0.619800
      4 C9           1.9400    -1.2480    -0.7220 c3         1 CAX      -0.064400
      5 C1           3.4700    -1.2470    -0.7220 c3         1 CAX      -0.058700
      6 C2           4.0250    -2.4250    -1.5620 c3         1 CAX      -0.063000
      7 C8           3.1480    -2.6690    -2.7920 c3         1 CAX      -0.081100
      8 C7           4.1260    -3.6920    -0.7130 c3         1 CAX      -0.081100
      9 C3           5.4280    -1.9420    -1.9850 c3         1 CAX      -0.176700
     10 C6           6.4830    -2.4930    -1.0250 c3         1 CAX      -0.078100
     11 C4           5.4100    -0.4290    -1.9210 c          1 CAX       0.583100
     12 O1           6.3310     0.3090    -2.1750 o          1 CAX      -0.510100
     13 C5           4.0190    -0.0130    -1.4760 c3         1 CAX      -0.197400
     14 HO3         -0.3140     0.8740    -0.1630 ho         1 CAX       0.406000
     15 H10          1.7900     0.8850    -0.5100 h2         1 CAX       0.019700
     16 HO2          1.4400     0.6530     1.8430 ho         1 CAX       0.406000
     17 H91          1.5790    -1.2480    -1.7430 hc         1 CAX       0.065700
     18 H92          1.5790    -2.1330    -0.2120 hc         1 CAX       0.065700
     19 H1           3.8600    -1.2820     0.2880 hc         1 CAX       0.081700
     20 H81          3.6500    -3.3560    -3.4630 hc         1 CAX       0.038533
     21 H82          2.2010    -3.0950    -2.4820 hc         1 CAX       0.038533
     22 H83          2.9710    -1.7300    -3.3020 hc         1 CAX       0.038533
     23 H71          3.1360    -4.1040    -0.5590 hc         1 CAX       0.038533
     24 H72          4.7440    -4.4210    -1.2230 hc         1 CAX       0.038533
     25 H73          4.5690    -3.4500     0.2450 hc         1 CAX       0.038533
     26 H3           5.6380    -2.2640    -2.9970 hc         1 CAX       0.077700
     27 H61          6.5360    -3.5700    -1.1270 hc         1 CAX       0.043367
     28 H62          7.4470    -2.0600    -1.2600 hc         1 CAX       0.043367
     29 H63          6.2120    -2.2400    -0.0070 hc         1 CAX       0.043367
     30 H51          4.0760     0.8410    -0.8110 hc         1 CAX       0.070700
     31 H52          3.3990     0.2100    -2.3360 hc         1 CAX       0.070700
@<TRIPOS>BOND
     1     1     2 1
     2     1    14 1
     3     2     3 1
     4     2     4 1
     5     2    15 1
     6     3    16 1
     7     4     5 1
     8     4    17 1
     9     4    18 1
    10     5     6 1
    11     5    13 1
    12     5    19 1
    13     6     7 1
    14     6     8 1
    15     6     9 1
    16     7    20 1
    17     7    21 1
    18     7    22 1
    19     8    23 1
    20     8    24 1
    21     8    25 1
    22     9    10 1
    23     9    11 1
    24     9    26 1
    25    10    27 1
    26    10    28 1
    27    10    29 1
    28    11    12 2
    29    11    13 1
    30    13    30 1
    31    13    31 1
@<TRIPOS>SUBSTRUCTURE
     1 CAX         1 TEMP              0 ****  ****    0 ROOT
