@<TRIPOS>MOLECULE
molecule
   48    49     1     0     0
SMALL
bcc


@<TRIPOS>ATOM
      1 S1           0.0000     0.0000     0.0000 ss         1 CAZ      -0.458200
      2 C2           1.8220     0.0000     0.0000 c3         1 CAZ       0.077900
      3 C3           2.2670     0.0000     1.4470 ce         1 CAZ      -0.261800
      4 C3'          3.2620     0.7870     1.8470 c2         1 CAZ      -0.172000
      5 C4           1.5840    -0.8820     2.4050 ce         1 CAZ       0.460600
      6 C4'          2.2080    -1.0530     3.7440 c          1 CAZ       0.803300
      7 O4A          1.5680    -1.7510     4.7010 o          1 CAZ      -0.808300
      8 O4B          3.2950    -0.5650     3.9730 o          1 CAZ      -0.808300
      9 N5           0.4980    -1.5130     2.1780 n2         1 CAZ      -0.564900
     10 C6          -0.2820    -1.5190     0.9520 c3         1 CAZ       0.252600
     11 C7          -1.7680    -1.6250     1.3010 c3         1 CAZ       0.032700
     12 C8          -2.5720    -1.7720     0.0350 c          1 CAZ       0.552900
     13 O9          -3.2570    -2.7520    -0.1340 o          1 CAZ      -0.525100
     14 N10         -1.9870    -2.7940     2.1570 ns         1 CAZ      -0.544900
     15 C11         -3.0460    -2.8320     2.9880 c          1 CAZ       0.567800
     16 O12         -3.7860    -1.8710     3.0740 o          1 CAZ      -0.572100
     17 C13         -3.3110    -4.0450     3.7970 ce         1 CAZ       0.269300
     18 N16         -4.4260    -4.1540     4.4630 n2         1 CAZ      -0.407200
     19 O17         -5.3290    -3.0640     4.5140 os         1 CAZ      -0.073300
     20 C18         -6.4400    -3.4870     5.3070 c3         1 CAZ       0.030800
     21 C14         -2.3100    -5.1320     3.8490 cc         1 CAZ       0.381000
     22 C15         -2.6440    -6.3580     4.3580 cd         1 CAZ      -0.104400
     23 S16         -1.0950    -7.2310     4.1690 ss         1 CAZ      -0.461300
     24 C17         -0.1660    -5.8900     3.4390 cd         1 CAZ       0.795300
     25 N18          1.1530    -5.8640     3.0220 nv         1 CAZ      -0.981500
     26 N19         -1.0730    -4.9320     3.3950 nc         1 CAZ      -0.721000
     27 C19         -7.0960    -4.7060     4.6580 c3         1 CAZ      -0.091100
     28 C20         -5.9540    -3.8560     6.7110 c3         1 CAZ      -0.091100
     29 C21         -7.4440    -2.3670     5.4020 c          1 CAZ       0.905600
     30 O2A         -8.5760    -2.5380     6.1030 o          1 CAZ      -0.830800
     31 O2B         -7.2310    -1.3150     4.8470 o          1 CAZ      -0.830800
     32 HC21         2.1900     0.8890    -0.4980 h1         1 CAZ       0.055700
     33 HC22         2.1900    -0.8890    -0.4980 h1         1 CAZ       0.055700
     34 HC31         3.5740     0.7800     2.8840 ha         1 CAZ       0.136000
     35 HC32         3.7600     1.4340     1.1350 ha         1 CAZ       0.136000
     36 HC6          0.0090    -2.3730     0.3520 h2         1 CAZ       0.058700
     37 HC7         -2.0810    -0.7300     1.8260 h1         1 CAZ       0.121700
     38 HC8         -2.5660    -0.9810    -0.7050 h4         1 CAZ      -0.009800
     39 H10N        -1.3600    -3.5720     2.1100 hn         1 CAZ       0.348500
     40 H15C        -3.5870    -6.7050     4.7630 h4         1 CAZ       0.206000
     41 H181         1.3810    -5.5500     2.1000 hn         1 CAZ       0.446800
     42 H182         1.8770    -6.1910     3.6320 hn         1 CAZ       0.446800
     43 H191        -7.2640    -4.5090     3.6060 hc         1 CAZ       0.029533
     44 H192        -6.4460    -5.5660     4.7640 hc         1 CAZ       0.029533
     45 H193        -8.0440    -4.9080     5.1420 hc         1 CAZ       0.029533
     46 H201        -5.3960    -4.7830     6.6670 hc         1 CAZ       0.029533
     47 H202        -6.8070    -3.9800     7.3670 hc         1 CAZ       0.029533
     48 H203        -5.3170    -3.0680     7.0920 hc         1 CAZ       0.029533
@<TRIPOS>BOND
     1     1     2 1
     2     1    10 1
     3     2     3 1
     4     2    32 1
     5     2    33 1
     6     3     4 2
     7     3     5 1
     8     4    34 1
     9     4    35 1
    10     5     6 1
    11     5     9 2
    12     6     7 1
    13     6     8 1
    14     9    10 1
    15    10    11 1
    16    10    36 1
    17    11    12 1
    18    11    14 1
    19    11    37 1
    20    12    13 2
    21    12    38 1
    22    14    15 1
    23    14    39 1
    24    15    16 2
    25    15    17 1
    26    17    18 2
    27    17    21 1
    28    18    19 1
    29    19    20 1
    30    20    27 1
    31    20    28 1
    32    20    29 1
    33    21    22 2
    34    21    26 1
    35    22    23 1
    36    22    40 1
    37    23    24 1
    38    24    25 1
    39    24    26 2
    40    25    41 1
    41    25    42 1
    42    27    43 1
    43    27    44 1
    44    27    45 1
    45    28    46 1
    46    28    47 1
    47    28    48 1
    48    29    30 1
    49    29    31 1
@<TRIPOS>SUBSTRUCTURE
     1 CAZ         1 TEMP              0 ****  ****    0 ROOT
