@<TRIPOS>MOLECULE
molecule
    6     5     1     0     0
SMALL
bcc


@<TRIPOS>ATOM
      1 Br1          0.0000     0.0000     0.0000 br         1 CB0      -0.113700
      2 C02          1.8920     0.0000     0.0000 c2         1 CB0      -0.177800
      3 C03          2.5480     0.0000     1.1360 c2         1 CB0      -0.177800
      4 Br4          1.6020     0.0000     2.7750 br         1 CB0      -0.113700
      5 H02          1.2800     0.8750     0.1850 h4         1 CB0       0.291000
      6 H03          2.0820    -0.8750     1.5740 h4         1 CB0       0.291000
@<TRIPOS>BOND
     1     1     2 1
     2     2     3 2
     3     3     4 1
     4     2     5 1
     5     3     6 1
@<TRIPOS>SUBSTRUCTURE
     1 CB0         1 TEMP              0 ****  ****    0 ROOT
