@<TRIPOS>MOLECULE
CB0
    6     5     1     0     0
SMALL
bcc


@<TRIPOS>ATOM
      1 Br1         0.0050   -0.0000   -0.1780 br        1 CB0     -0.053700
      2 C02         1.8450    0.0000    0.0160 c2        1 CB0     -0.107300
      3 C03         2.5100    0.0000    1.1690 c2        1 CB0     -0.107300
      4 Br4         1.7560   -0.0000    2.8590 br        1 CB0     -0.053700
      5 H02         2.3790    0.0000   -0.9460 h4        1 CB0      0.161000
      6 H03         3.6100    0.0000    1.1890 h4        1 CB0      0.161000
@<TRIPOS>BOND
     1    1    2 1   
     2    2    3 2   
     3    2    5 1   
     4    3    4 1   
     5    3    6 1   
@<TRIPOS>SUBSTRUCTURE
     1 CB0         1 TEMP              0 ****  ****    0 ROOT
