@<TRIPOS>MOLECULE
molecule
   27    28     1     0     0
SMALL
bcc


@<TRIPOS>ATOM
      1 C            0.0000     0.0000     0.0000 ca         1 CB1       0.011000
      2 C1           1.3810     0.0000     0.0000 ca         1 CB1      -0.133200
      3 C2           2.0790     0.0000     1.2080 ca         1 CB1      -0.109600
      4 C4           1.3770     0.0110     2.4140 ca         1 CB1      -0.157000
      5 C5          -0.0090     0.0160     2.4030 ca         1 CB1       0.160600
      6 C8          -0.6950     0.0110     1.1940 ca         1 CB1      -0.137200
      7 N            2.1200    -0.0110    -1.2820 no         1 CB1       0.291200
      8 O1           3.3310     0.1160    -1.2880 o          1 CB1      -0.167000
      9 O2           1.5180    -0.1470    -2.3330 o          1 CB1      -0.167000
     10 C3           3.5570    -0.0060     1.2110 c          1 CB1       0.498700
     11 N1           4.2340     0.9480     1.8800 nz         1 CB1      -0.676400
     12 O            4.1630    -0.8710     0.6080 o          1 CB1      -0.334100
     13 N6          -0.7160     0.0280     3.6080 nm         1 CB1      -0.479000
     14 C7          -1.2500    -1.3280     3.7970 cx         1 CB1       0.066300
     15 C9           0.0060    -0.8570     4.5310 cx         1 CB1       0.066300
     16 N3          -2.1750     0.0160     1.1860 no         1 CB1       0.288200
     17 O3          -2.7900     0.0260     2.2370 o          1 CB1      -0.148000
     18 O4          -2.7780     0.0110     0.1270 o          1 CB1      -0.148000
     19 H1          -0.5400    -0.0020    -0.9390 ha         1 CB1       0.226000
     20 H41          1.9130     0.0130     3.3550 ha         1 CB1       0.165000
     21 HN11         4.5040     0.5980     2.7780 hn         1 CB1       0.484133
     22 HN12         3.6490     1.7520     1.9970 hn         1 CB1       0.484133
     23 H71         -2.1470    -1.3990     4.4000 h1         1 CB1       0.108200
     24 H72         -1.0840    -2.0160     2.9770 h1         1 CB1       0.108200
     25 H91         -0.1200    -0.6400     5.5850 h1         1 CB1       0.108200
     26 H92          0.9430    -1.2570     4.1610 h1         1 CB1       0.108200
     27 H13          5.0420     1.2160     1.3530 hn         1 CB1       0.484133
@<TRIPOS>BOND
     1     1     2 ar
     2     1     6 ar
     3     1    19 1
     4     2     3 ar
     5     2     7 1
     6     3     4 ar
     7     3    10 1
     8     4     5 ar
     9     4    20 1
    10     5     6 ar
    11     5    13 1
    12     6    16 1
    13     7     8 1
    14     7     9 1
    15    10    11 1
    16    10    12 2
    17    11    21 1
    18    11    22 1
    19    13    14 1
    20    13    15 1
    21    14    15 1
    22    14    23 1
    23    14    24 1
    24    15    25 1
    25    15    26 1
    26    16    17 1
    27    16    18 1
    28    27    11 1
@<TRIPOS>SUBSTRUCTURE
     1 CB1         1 TEMP              0 ****  ****    0 ROOT
