@<TRIPOS>MOLECULE
CB3
   57    59     1     0     0
SMALL
bcc


@<TRIPOS>ATOM
      1 N1          0.8060    0.3310    0.2280 na        1 CB3     -0.731600
      2 C2          0.5870   -0.6400   -0.7790 cc        1 CB3      0.835100
      3 NA2         1.0200   -0.2960   -2.0880 nh        1 CB3     -0.889800
      4 N3         -0.0150   -1.8110   -0.5720 nd        1 CB3     -0.744100
      5 C4         -0.5710   -2.0970    0.6920 c         1 CB3      0.719100
      6 O4         -1.1420   -3.1850    0.8850 o         1 CB3     -0.553100
      7 C4A        -0.4470   -1.0780    1.7650 ca        1 CB3     -0.218600
      8 C5         -0.9940   -1.2950    3.0330 ca        1 CB3     -0.037000
      9 C6         -0.8750   -0.3310    4.0310 ca        1 CB3     -0.162300
     10 C7         -0.2030    0.8690    3.7520 ca        1 CB3     -0.057000
     11 C8          0.3450    1.1120    2.5020 ca        1 CB3     -0.186000
     12 C8A         0.2330    0.1330    1.4880 ca        1 CB3      0.175600
     13 C9         -1.4210   -0.5920    5.4080 c3        1 CB3      0.235100
     14 N10        -2.4210    0.3270    5.9220 nh        1 CB3     -0.631000
     15 C11        -0.9200    4.0530    7.3060 ca        1 CB3     -0.142600
     16 C12        -0.5020    2.8500    7.8800 ca        1 CB3     -0.077500
     17 C13        -0.9930    1.6350    7.4130 ca        1 CB3     -0.172500
     18 C14        -1.9230    1.5920    6.3500 ca        1 CB3      0.119600
     19 C15        -2.3510    2.8150    5.7900 ca        1 CB3     -0.172500
     20 C16        -1.8540    4.0240    6.2650 ca        1 CB3     -0.077500
     21 O          -0.2510    6.2980    6.8810 o         1 CB3     -0.653100
     22 N          -0.0130    5.5340    9.0400 n         1 CB3     -0.515900
     23 CA          0.3610    6.8070    9.6140 c3        1 CB3     -0.057300
     24 CB          1.8470    7.1590    9.4190 c3        1 CB3     -0.083400
     25 CG          2.0530    8.1490    8.2950 c3        1 CB3     -0.184400
     26 CD          1.9270    9.5920    8.6830 c         1 CB3      0.636100
     27 OE1         2.4300   10.5250    8.0380 o         1 CB3     -0.572000
     28 OE2         1.2300   10.0090    9.7660 oh        1 CB3     -0.604100
     29 CT          0.0410    6.8750   11.1540 c         1 CB3      0.915600
     30 O1         -0.3650    5.8420   11.7450 o         1 CB3     -0.819800
     31 O2          0.2240    8.0070   11.6840 o         1 CB3     -0.819800
     32 CP1        -3.6550    0.3300    5.1430 c3        1 CB3      0.267900
     33 CP2        -4.7790    0.9420    5.8110 c1        1 CB3     -0.145100
     34 CP3        -5.7330    1.4260    6.3450 c1        1 CB3     -0.134500
     35 HN1         1.1260    1.2430   -0.0050 hn        1 CB3      0.451800
     36 HN21        0.9240   -1.0410   -2.7470 hn        1 CB3      0.412800
     37 HN22        1.9120    0.1470   -2.1250 hn        1 CB3      0.412800
     38 H5         -1.5160   -2.2490    3.2200 ha        1 CB3      0.160000
     39 H7         -0.1160    1.6360    4.5430 ha        1 CB3      0.162000
     40 H8          0.8630    2.0630    2.3080 ha        1 CB3      0.144000
     41 H91        -1.8820   -1.6220    5.4310 h1        1 CB3      0.065200
     42 H92        -0.5520   -0.5890    6.1300 h1        1 CB3      0.065200
     43 H12         0.2260    2.8470    8.7070 ha        1 CB3      0.151500
     44 H13        -0.6570    0.7040    7.8950 ha        1 CB3      0.135000
     45 H15        -3.0940    2.8310    4.9790 ha        1 CB3      0.135000
     46 H16        -2.1790    4.9760    5.8130 ha        1 CB3      0.151500
     47 HN          0.8720    9.2580   10.2890 ho        1 CB3      0.490000
     48 HA         -0.2620    7.6150    9.1240 h1        1 CB3      0.055700
     49 HB1         2.2400    7.5850   10.3820 hc        1 CB3      0.056700
     50 HB2         2.4470    6.2370    9.2010 hc        1 CB3      0.056700
     51 HG1         3.0780    8.0150    7.8550 hc        1 CB3      0.082700
     52 HG2         1.3080    7.9500    7.4710 hc        1 CB3      0.082700
     53 HP11       -3.5140    0.8350    4.1380 h1        1 CB3      0.052200
     54 HP12       -3.9170   -0.7530    4.9400 h1        1 CB3      0.052200
     55 HP3        -6.5740    1.8640    6.8190 ha        1 CB3      0.165500
     56 H2         -0.2910    4.8490    9.7140 hn        1 CB3      0.336500
     57 C          -0.3820    5.3840    7.7320 c         1 CB3      0.654700
@<TRIPOS>BOND
     1    1    2 1   
     2    1   12 1   
     3    1   35 1   
     4    2    3 1   
     5    2    4 2   
     6    3   36 1   
     7    3   37 1   
     8    4    5 1   
     9    5    6 2   
    10    5    7 1   
    11    7    8 ar  
    12    7   12 ar  
    13    8    9 ar  
    14    8   38 1   
    15    9   10 ar  
    16    9   13 1   
    17   10   11 ar  
    18   10   39 1   
    19   11   12 ar  
    20   11   40 1   
    21   13   14 1   
    22   13   41 1   
    23   13   42 1   
    24   14   18 1   
    25   14   32 1   
    26   15   16 ar  
    27   15   20 ar  
    28   15   57 1   
    29   16   17 ar  
    30   16   43 1   
    31   17   18 ar  
    32   17   44 1   
    33   18   19 ar  
    34   19   20 ar  
    35   19   45 1   
    36   20   46 1   
    37   21   57 2   
    38   22   23 1   
    39   22   56 1   
    40   22   57 1   
    41   23   24 1   
    42   23   29 1   
    43   23   48 1   
    44   24   25 1   
    45   24   49 1   
    46   24   50 1   
    47   25   26 1   
    48   25   51 1   
    49   25   52 1   
    50   26   27 2   
    51   26   28 1   
    52   28   47 1   
    53   29   30 1   
    54   29   31 1   
    55   32   33 1   
    56   32   53 1   
    57   32   54 1   
    58   33   34 3   
    59   34   55 1   
@<TRIPOS>SUBSTRUCTURE
     1 CB3         1 TEMP              0 ****  ****    0 ROOT
