@<TRIPOS>MOLECULE
CB6
   41    43     1     0     0
SMALL
bcc


@<TRIPOS>ATOM
      1 CAK         0.0880   -0.4510    0.1520 cc        1 CB6     -0.158200
      2 CAT         1.4900   -0.1350    0.1850 ca        1 CB6     -0.069800
      3 CAI         2.5130   -0.7690    0.9050 ca        1 CB6     -0.093000
      4 CAH         3.8150   -0.3000    0.7970 ca        1 CB6     -0.093300
      5 CAR         4.1000    0.8090   -0.0340 ca        1 CB6     -0.136000
      6 CAJ         3.1020    1.4440   -0.7470 ca        1 CB6     -0.089000
      7 CAU         1.7820    0.9810   -0.6490 ca        1 CB6     -0.116100
      8 SAO         0.3900    1.5580   -1.3940 ss        1 CB6      0.119500
      9 CAS        -0.6100    0.3960   -0.6750 cd        1 CB6     -0.078600
     10 CAL        -2.0660    0.2680   -0.9160 c3        1 CB6      0.184600
     11 OAN        -2.5450    1.5000   -1.4620 os        1 CB6     -0.328900
     12 CAQ        -3.8900    1.4970   -1.8130 c2        1 CB6      0.037900
     13 CAG        -4.7540    0.4910   -1.6140 c2        1 CB6     -0.198200
     14 CAX        -6.2100    0.5650   -1.9620 c3        1 CB6      0.061000
     15 CAP        -7.0370    0.1210   -0.6960 c         1 CB6      0.906600
     16 OAC        -7.2980    0.9760    0.1860 o         1 CB6     -0.818300
     17 OAB        -7.3780   -1.0950   -0.6750 o         1 CB6     -0.818300
     18 OAF        -6.4570   -0.3300   -3.0450 oh        1 CB6     -0.633800
     19 CAM        -6.6490    1.9580   -2.4040 c3        1 CB6     -0.098400
     20 CAV        -5.5790    2.6600   -3.2190 c3        1 CB6      0.104100
     21 OAD        -5.9920    3.9430   -3.6720 oh        1 CB6     -0.623800
     22 CAW        -4.2870    2.8250   -2.3930 c3        1 CB6      0.173300
     23 OAE        -3.2300    3.3330   -3.1980 oh        1 CB6     -0.594800
     24 CAA         4.9220   -0.9440    1.5420 c3        1 CB6     -0.046800
     25 HAK        -0.3460   -1.2720    0.7270 ha        1 CB6      0.155000
     26 HAI         2.2730   -1.6290    1.5460 ha        1 CB6      0.131000
     27 HAR         5.1380    1.1640   -0.1040 ha        1 CB6      0.122000
     28 HAA1        5.4040   -0.2070    2.2320 hc        1 CB6      0.037367
     29 HAA2        5.7020   -1.3170    0.8320 hc        1 CB6      0.037367
     30 HAA3        4.5560   -1.8080    2.1490 hc        1 CB6      0.037367
     31 HAJ         3.3340    2.3060   -1.3890 ha        1 CB6      0.130000
     32 HAL1       -2.2610   -0.5690   -1.6440 h1        1 CB6      0.059700
     33 HAL2       -2.6060    0.0540    0.0480 h1        1 CB6      0.059700
     34 HAG        -4.4590   -0.4690   -1.1670 ha        1 CB6      0.136000
     35 HAW        -4.4630    3.5530   -1.5480 h1        1 CB6      0.045700
     36 HAF        -6.8380   -1.1370   -2.6580 ho        1 CB6      0.429000
     37 HAM1       -6.8880    2.5540   -1.4820 hc        1 CB6      0.067700
     38 HAM2       -7.5810    1.8700   -3.0190 hc        1 CB6      0.067700
     39 HAV        -5.3550    2.0870   -4.1630 h1        1 CB6      0.091700
     40 HAD        -6.4300    4.3790   -2.9310 ho        1 CB6      0.398000
     41 HAE        -3.6420    3.9530   -3.8150 ho        1 CB6      0.403000
@<TRIPOS>BOND
     1    1    2 1   
     2    1    9 2   
     3    1   25 1   
     4    2    3 ar  
     5    2    7 ar  
     6    3    4 ar  
     7    3   26 1   
     8    4    5 ar  
     9    4   24 1   
    10    5    6 ar  
    11    5   27 1   
    12    6    7 ar  
    13    6   31 1   
    14    7    8 1   
    15    8    9 1   
    16    9   10 1   
    17   10   11 1   
    18   10   32 1   
    19   10   33 1   
    20   11   12 1   
    21   12   13 2   
    22   12   22 1   
    23   13   14 1   
    24   13   34 1   
    25   14   15 1   
    26   14   18 1   
    27   14   19 1   
    28   15   16 1   
    29   15   17 1   
    30   18   36 1   
    31   19   20 1   
    32   19   37 1   
    33   19   38 1   
    34   20   21 1   
    35   20   22 1   
    36   20   39 1   
    37   21   40 1   
    38   22   23 1   
    39   22   35 1   
    40   23   41 1   
    41   24   28 1   
    42   24   29 1   
    43   24   30 1   
@<TRIPOS>SUBSTRUCTURE
     1 CB6         1 TEMP              0 ****  ****    0 ROOT
