@<TRIPOS>MOLECULE
molecule
   41    43     1     0     0
SMALL
bcc


@<TRIPOS>ATOM
      1 CAK          0.0000     0.0000     0.0000 cc         1 CB6      -0.124200
      2 CAT          1.4540     0.0000     0.0000 ca         1 CB6      -0.071800
      3 CAI          2.3490     0.0000     1.0920 ca         1 CB6      -0.091000
      4 CAH          3.6930     0.0000     0.8830 ca         1 CB6      -0.095300
      5 CAR          4.2070    -0.0020    -0.4070 ca         1 CB6      -0.126000
      6 CAJ          3.3590    -0.0030    -1.4890 ca         1 CB6      -0.094000
      7 CAU          1.9740    -0.0030    -1.2970 ca         1 CB6      -0.022100
      8 SAO          0.6580    -0.0030    -2.4630 ss         1 CB6      -0.088500
      9 CAS         -0.5540    -0.0010    -1.1960 cd         1 CB6      -0.010600
     10 CAL         -2.0400     0.0000    -1.4440 c3         1 CB6       0.204600
     11 OAN         -2.5090     1.3480    -1.5230 os         1 CB6      -0.338900
     12 CAQ         -3.8360     1.5270    -1.7440 c2         1 CB6       0.040900
     13 CAG         -4.5840     0.4670    -1.8670 c2         1 CB6      -0.202200
     14 CAX         -6.0620     0.5090    -2.1230 c3         1 CB6       0.095000
     15 CAP         -6.7480    -0.5170    -1.2570 c          1 CB6       0.869600
     16 OAC         -7.2140    -0.1920    -0.1910 o          1 CB6      -0.830300
     17 OAB         -6.8410    -1.7900    -1.6710 o          1 CB6      -0.830300
     18 OAF         -6.3130     0.2140    -3.4980 oh         1 CB6      -0.617800
     19 CAM         -6.6140     1.8990    -1.7970 c3         1 CB6      -0.100400
     20 CAV         -5.7340     2.9460    -2.4900 c3         1 CB6       0.128100
     21 OAD         -6.3230     4.2400    -2.3460 oh         1 CB6      -0.622800
     22 CAW         -4.3540     2.9330    -1.8260 c3         1 CB6       0.214300
     23 OAE         -3.4510     3.7250    -2.5990 oh         1 CB6      -0.601800
     24 CAA          4.6330     0.0020     2.0600 c3         1 CB6      -0.044800
     25 HAK         -0.5830     0.0010     0.9130 ha         1 CB6       0.157000
     26 HAI          1.9620     0.0020     2.1040 ha         1 CB6       0.131000
     27 HAR          5.2790    -0.0020    -0.5620 ha         1 CB6       0.125000
     28 HAA1         5.6540     0.0880     1.7080 hc         1 CB6       0.038700
     29 HAA2         4.5190    -0.9210     2.6150 hc         1 CB6       0.038700
     30 HAA3         4.4020     0.8420     2.7050 hc         1 CB6       0.038700
     31 HAJ          3.7650    -0.0050    -2.4940 ha         1 CB6       0.129000
     32 HAL1        -2.5420    -0.5090    -0.6310 h1         1 CB6       0.058700
     33 HAL2        -2.2510    -0.5110    -2.3750 h1         1 CB6       0.058700
     34 HAG         -4.1100    -0.5030    -1.7800 ha         1 CB6       0.141000
     35 HAW         -4.4340     3.3430    -0.8260 h1         1 CB6       0.050700
     36 HAF         -7.1490    -0.2140    -3.5800 ho         1 CB6       0.413000
     37 HAM1        -6.5910     2.0570    -0.7250 hc         1 CB6       0.063700
     38 HAM2        -7.6300     1.9810    -2.1610 hc         1 CB6       0.063700
     39 HAV         -5.6340     2.7000    -3.5400 h1         1 CB6       0.061700
     40 HAD         -6.6800     4.5170    -3.1730 ho         1 CB6       0.395000
     41 HAE         -3.2250     4.5040    -2.1180 ho         1 CB6       0.394000
@<TRIPOS>BOND
     1     1     2 1
     2     1     9 2
     3     2     3 ar
     4     2     7 ar
     5     3     4 ar
     6     4     5 ar
     7     4    24 1
     8     5     6 ar
     9     6     7 ar
    10     7     8 1
    11     8     9 1
    12     9    10 1
    13    10    11 1
    14    11    12 1
    15    12    13 2
    16    12    22 1
    17    13    14 1
    18    14    15 1
    19    14    18 1
    20    14    19 1
    21    15    16 1
    22    15    17 1
    23    19    20 1
    24    20    21 1
    25    20    22 1
    26    22    23 1
    27     1    25 1
    28     3    26 1
    29     5    27 1
    30    24    28 1
    31    24    29 1
    32    24    30 1
    33     6    31 1
    34    10    32 1
    35    10    33 1
    36    13    34 1
    37    22    35 1
    38    18    36 1
    39    19    37 1
    40    19    38 1
    41    20    39 1
    42    21    40 1
    43    23    41 1
@<TRIPOS>SUBSTRUCTURE
     1 CB6         1 TEMP              0 ****  ****    0 ROOT
