@<TRIPOS>MOLECULE
molecule
   54    58     1     0     0
SMALL
bcc


@<TRIPOS>ATOM
      1 CAO          0.0000     0.0000     0.0000 ca         1 CB7      -0.085000
      2 CBB          1.4120     0.0000     0.0000 ca         1 CB7      -0.096800
      3 CAK          2.3330     0.0000     1.1250 cc         1 CB7      -0.111200
      4 CAG          3.6100     0.0000     0.7970 cd         1 CB7      -0.103400
      5 SAU          3.8230     0.0030    -0.9430 ss         1 CB7      -0.177500
      6 CBD          2.0860     0.0020    -1.2240 ca         1 CB7      -0.001100
      7 CAM          1.3580     0.0030    -2.4180 ca         1 CB7      -0.119000
      8 CAI         -0.0170     0.0030    -2.3880 ca         1 CB7      -0.070000
      9 CAZ         -0.6890     0.0020    -1.1740 ca         1 CB7      -0.058300
     10 CAQ         -2.1960     0.0020    -1.1540 c3         1 CB7      -0.002900
     11 CAW         -2.6970     1.4170    -1.0250 c2         1 CB7      -0.019400
     12 CBG         -2.8530     2.2260    -2.2790 c3         1 CB7       0.090000
     13 CAV         -3.4760     1.3710    -3.3520 c          1 CB7       0.877600
     14 OAB         -4.1910     0.4460    -3.0470 o          1 CB7      -0.831800
     15 OAA         -3.2360     1.6350    -4.6460 o          1 CB7      -0.831800
     16 OAE         -1.5700     2.6750    -2.7170 oh         1 CB7      -0.609800
     17 CAR         -3.7490     3.4400    -2.0150 c3         1 CB7      -0.112400
     18 CBE         -3.2390     4.1540    -0.7570 c3         1 CB7       0.111100
     19 OAC         -3.9470     5.3820    -0.5820 oh         1 CB7      -0.627800
     20 CBF         -3.4830     3.2450     0.4490 c3         1 CB7       0.180300
     21 OAD         -2.8080     3.7780     1.5890 oh         1 CB7      -0.599800
     22 CAX         -2.9720     1.8620     0.1670 c2         1 CB7       0.019900
     23 OAS         -2.7830     1.0260     1.2180 os         1 CB7      -0.331900
     24 CAP         -3.9460     0.6170     1.9400 c3         1 CB7       0.182700
     25 CAY         -3.5330    -0.2040     3.1350 ca         1 CB7      -0.079300
     26 CAN         -3.3860     0.3970     4.3480 ca         1 CB7      -0.069000
     27 CBA         -3.0000    -0.3570     5.4770 ca         1 CB7      -0.090800
     28 CAJ         -2.7870     0.0800     6.8480 cc         1 CB7      -0.119200
     29 CAF         -2.4260    -0.8730     7.6840 cd         1 CB7      -0.090400
     30 SAT         -2.3060    -2.4240     6.8740 ss         1 CB7      -0.142500
     31 CBC         -2.7720    -1.7280     5.3270 ca         1 CB7      -0.001100
     32 CAL         -2.9300    -2.3230     4.0720 ca         1 CB7      -0.109000
     33 CAH         -3.3120    -1.5660     2.9900 ca         1 CB7      -0.089000
     34 HAO         -0.5380    -0.0010     0.9400 ha         1 CB7       0.147000
     35 HAK          1.9960    -0.0010     2.1540 ha         1 CB7       0.143000
     36 HAG          4.4240    -0.0010     1.5110 h4         1 CB7       0.154000
     37 HAM          1.8780     0.0040    -3.3680 ha         1 CB7       0.126000
     38 HAI         -0.5780     0.0040    -3.3150 ha         1 CB7       0.165000
     39 HAQ1        -2.5690    -0.4310    -2.0740 hc         1 CB7       0.078200
     40 HAQ2        -2.5460    -0.5840    -0.3120 hc         1 CB7       0.078200
     41 HAE         -1.6670     3.1920    -3.4990 ho         1 CB7       0.415000
     42 HAR1        -3.7040     4.1160    -2.8600 hc         1 CB7       0.060700
     43 HAR2        -4.7690     3.1110    -1.8580 hc         1 CB7       0.060700
     44 HBE         -2.1780     4.3490    -0.8560 h1         1 CB7       0.064700
     45 HAC         -3.4160     6.0980    -0.8910 ho         1 CB7       0.398000
     46 HBF         -4.5470     3.1970     0.6480 h1         1 CB7       0.037700
     47 HAD         -3.3090     4.4930     1.9460 ho         1 CB7       0.393000
     48 HAP1        -4.4900     1.4930     2.2750 h1         1 CB7       0.035700
     49 HAP2        -4.5810     0.0220     1.2950 h1         1 CB7       0.035700
     50 HAN         -3.5750     1.4590     4.4490 ha         1 CB7       0.139000
     51 HAH         -3.4700    -2.0400     2.0280 ha         1 CB7       0.146000
     52 HAJ         -2.9150     1.1100     7.1580 ha         1 CB7       0.146000
     53 HAF         -2.2280    -0.7190     8.7380 h4         1 CB7       0.162000
     54 HAL         -2.7590    -3.3870     3.9540 ha         1 CB7       0.132000
@<TRIPOS>BOND
     1     1     2 ar
     2     1     9 ar
     3     2     3 1
     4     2     6 ar
     5     3     4 2
     6     4     5 1
     7     5     6 1
     8     6     7 ar
     9     7     8 ar
    10     8     9 ar
    11     9    10 1
    12    10    11 1
    13    11    12 1
    14    11    22 2
    15    12    13 1
    16    12    16 1
    17    12    17 1
    18    13    14 1
    19    13    15 1
    20    17    18 1
    21    18    19 1
    22    18    20 1
    23    20    21 1
    24    20    22 1
    25    22    23 1
    26    23    24 1
    27    24    25 1
    28    25    26 ar
    29    25    33 ar
    30    26    27 ar
    31    27    28 1
    32    27    31 ar
    33    28    29 2
    34    29    30 1
    35    30    31 1
    36    31    32 ar
    37    32    33 ar
    38     1    34 1
    39     3    35 1
    40     4    36 1
    41     7    37 1
    42     8    38 1
    43    10    39 1
    44    10    40 1
    45    16    41 1
    46    17    42 1
    47    17    43 1
    48    18    44 1
    49    19    45 1
    50    20    46 1
    51    21    47 1
    52    24    48 1
    53    24    49 1
    54    26    50 1
    55    33    51 1
    56    28    52 1
    57    29    53 1
    58    32    54 1
@<TRIPOS>SUBSTRUCTURE
     1 CB7         1 TEMP              0 ****  ****    0 ROOT
