@<TRIPOS>MOLECULE
CB7
   54    58     1     0     0
SMALL
bcc


@<TRIPOS>ATOM
      1 CAO         0.2190    0.1150   -0.0810 ca        1 CB7     -0.096000
      2 CBB         1.5980   -0.0100   -0.2830 ca        1 CB7     -0.091800
      3 CAK         2.6590    0.0350    0.6950 cc        1 CB7     -0.119200
      4 CAG         3.8860   -0.1310    0.1240 cd        1 CB7     -0.161400
      5 SAU         3.8040   -0.3360   -1.5540 ss        1 CB7     -0.048500
      6 CBD         2.1120   -0.2120   -1.5930 ca        1 CB7     -0.062100
      7 CAM         1.2410   -0.2730   -2.6850 ca        1 CB7     -0.112000
      8 CAI        -0.1230   -0.1480   -2.4730 ca        1 CB7     -0.104000
      9 CAZ        -0.6410    0.0350   -1.1710 ca        1 CB7     -0.051300
     10 CAQ        -2.1180    0.1050   -0.9770 c3        1 CB7     -0.009900
     11 CAW        -2.6500    1.4980   -0.9090 c2        1 CB7     -0.040400
     12 CBG        -2.8910    2.2180   -2.2170 c3        1 CB7      0.055000
     13 CAV        -3.5620    1.2350   -3.2470 c         1 CB7      0.906600
     14 OAB        -4.8010    1.0460   -3.1830 o         1 CB7     -0.818800
     15 OAA        -2.7740    0.6930   -4.0750 o         1 CB7     -0.818800
     16 OAE        -1.6440    2.6830   -2.7240 oh        1 CB7     -0.620800
     17 CAR        -3.7840    3.4450   -2.0430 c3        1 CB7     -0.099400
     18 CBE        -3.3830    4.2710   -0.8320 c3        1 CB7      0.116100
     19 OAC        -4.1300    5.4740   -0.7500 oh        1 CB7     -0.599800
     20 CBF        -3.5680    3.4300    0.4440 c3        1 CB7      0.148300
     21 OAD        -3.0790    4.1060    1.5910 oh        1 CB7     -0.600800
     22 CAX        -2.9290    2.0830    0.2760 c2        1 CB7     -0.044100
     23 OAS        -2.5630    1.4420    1.4620 os        1 CB7     -0.348900
     24 CAP        -3.6750    1.2250    2.3440 c3        1 CB7      0.161700
     25 CAY        -3.2490    0.2770    3.4180 ca        1 CB7     -0.072300
     26 CAN        -3.8540    0.3530    4.6680 ca        1 CB7     -0.095000
     27 CBA        -3.4860   -0.5610    5.6630 ca        1 CB7     -0.085800
     28 CAJ        -3.9830   -0.6660    7.0140 cc        1 CB7     -0.124200
     29 CAF        -3.3840   -1.6850    7.6960 cd        1 CB7     -0.156400
     30 SAT        -2.2450   -2.5170    6.7650 ss        1 CB7     -0.017500
     31 CBC        -2.4990   -1.5500    5.3980 ca        1 CB7     -0.068100
     32 CAL        -1.8920   -1.6110    4.1400 ca        1 CB7     -0.104000
     33 CAH        -2.2690   -0.7040    3.1620 ca        1 CB7     -0.094000
     34 HAO        -0.1820    0.2900    0.9300 ha        1 CB7      0.142000
     35 HAK         2.4620    0.1890    1.7580 ha        1 CB7      0.148000
     36 HAG         4.8410   -0.1350    0.6440 h4        1 CB7      0.155000
     37 HAM         1.6340   -0.4130   -3.7010 ha        1 CB7      0.130000
     38 HAI        -0.8350   -0.1670   -3.3240 ha        1 CB7      0.193000
     39 HAQ1       -2.6310   -0.4290   -1.8290 hc        1 CB7      0.071700
     40 HAQ2       -2.3830   -0.4360   -0.0260 hc        1 CB7      0.071700
     41 HAE        -1.3440    2.0280   -3.3760 ho        1 CB7      0.427000
     42 HAR1       -4.8460    3.0950   -1.9490 hc        1 CB7      0.068200
     43 HAR2       -3.7040    4.0790   -2.9630 hc        1 CB7      0.068200
     44 HBE        -2.3130    4.6120   -0.9190 h1        1 CB7      0.089700
     45 HAC        -5.0620    5.2290   -0.7680 ho        1 CB7      0.390000
     46 HBF        -4.6700    3.3040    0.6570 h1        1 CB7      0.065700
     47 HAD        -2.1170    4.1150    1.5230 ho        1 CB7      0.407000
     48 HAP1       -4.5360    0.7860    1.7710 h1        1 CB7      0.054200
     49 HAP2       -3.9800    2.2160    2.7790 h1        1 CB7      0.054200
     50 HAN        -4.6120    1.1200    4.8810 ha        1 CB7      0.136000
     51 HAH        -1.7980   -0.7310    2.1640 ha        1 CB7      0.160000
     52 HAJ        -4.7470    0.0070    7.4080 ha        1 CB7      0.150000
     53 HAF        -3.5840   -1.9690    8.7280 h4        1 CB7      0.161000
     54 HAL        -1.1260   -2.3700    3.9290 ha        1 CB7      0.136000
@<TRIPOS>BOND
     1    1    2 ar  
     2    1    9 ar  
     3    1   34 1   
     4    2    3 1   
     5    2    6 ar  
     6    3    4 2   
     7    3   35 1   
     8    4    5 1   
     9    4   36 1   
    10    5    6 1   
    11    6    7 ar  
    12    7    8 ar  
    13    7   37 1   
    14    8    9 ar  
    15    8   38 1   
    16    9   10 1   
    17   10   11 1   
    18   10   39 1   
    19   10   40 1   
    20   11   12 1   
    21   11   22 2   
    22   12   13 1   
    23   12   16 1   
    24   12   17 1   
    25   13   14 1   
    26   13   15 1   
    27   16   41 1   
    28   17   18 1   
    29   17   42 1   
    30   17   43 1   
    31   18   19 1   
    32   18   20 1   
    33   18   44 1   
    34   19   45 1   
    35   20   21 1   
    36   20   22 1   
    37   20   46 1   
    38   21   47 1   
    39   22   23 1   
    40   23   24 1   
    41   24   25 1   
    42   24   48 1   
    43   24   49 1   
    44   25   26 ar  
    45   25   33 ar  
    46   26   27 ar  
    47   26   50 1   
    48   27   28 1   
    49   27   31 ar  
    50   28   29 2   
    51   28   52 1   
    52   29   30 1   
    53   29   53 1   
    54   30   31 1   
    55   31   32 ar  
    56   32   33 ar  
    57   32   54 1   
    58   33   51 1   
@<TRIPOS>SUBSTRUCTURE
     1 CB7         1 TEMP              0 ****  ****    0 ROOT
