@<TRIPOS>MOLECULE
CB8
   48    51     1     0     0
SMALL
bcc


@<TRIPOS>ATOM
      1 CAV         0.0970   -0.1750   -0.0420 c2        1 CB8     -0.051100
      2 CBB         1.5300   -0.6120   -0.0600 c3        1 CB8      0.145300
      3 OAD         2.2600   -0.0180   -1.1190 oh        1 CB8     -0.599800
      4 CBA         2.1450   -0.2940    1.3160 c3        1 CB8      0.117100
      5 OAC         3.5160   -0.6550    1.3570 oh        1 CB8     -0.601800
      6 CAP         1.3510   -1.0220    2.3890 c3        1 CB8     -0.101400
      7 CBC        -0.1440   -0.7000    2.3850 c3        1 CB8      0.049000
      8 CAT        -0.9670   -2.0080    2.7380 c         1 CB8      0.905600
      9 OAB        -1.9640   -1.8240    3.4920 o         1 CB8     -0.813300
     10 OAA        -0.5930   -3.1060    2.2600 o         1 CB8     -0.813300
     11 OAE        -0.3540    0.2830    3.3920 oh        1 CB8     -0.622800
     12 CAU        -0.6710   -0.1850    1.0680 c2        1 CB8     -0.032400
     13 CAM        -2.2730    0.8430   -3.2780 cc        1 CB8     -0.115200
     14 CAY        -2.8530    1.1500   -4.5610 ca        1 CB8     -0.074800
     15 CAK        -3.8640    2.0710   -4.8650 ca        1 CB8     -0.089000
     16 CAF        -4.2810    2.2070   -6.1800 ca        1 CB8     -0.144000
     17 CAG        -3.7010    1.4330   -7.2010 ca        1 CB8     -0.133000
     18 CAL        -2.7000    0.5180   -6.9180 ca        1 CB8     -0.099000
     19 CAZ        -2.2650    0.3680   -5.5960 ca        1 CB8     -0.075100
     20 SAS        -1.0760   -0.6550   -4.9720 ss        1 CB8     -0.006500
     21 CAX        -1.3050   -0.1190   -3.3700 cd        1 CB8     -0.070600
     22 CAN        -0.5230   -0.6880   -2.2510 c3        1 CB8      0.183600
     23 OAQ        -0.3870    0.3350   -1.2460 os        1 CB8     -0.345900
     24 CAO        -2.1090    0.2230    1.0400 c3        1 CB8      0.013100
     25 CAW        -2.3320    1.6790    1.1150 cc        1 CB8     -0.054400
     26 CAJ        -1.9390    2.6270    0.1900 cd        1 CB8     -0.178000
     27 CAH        -2.3660    3.9400    0.5560 cd        1 CB8     -0.161000
     28 CAI        -3.0680    3.9330    1.7430 cc        1 CB8     -0.203100
     29 SAR        -3.1850    2.3960    2.3790 ss        1 CB8      0.019200
     30 HBB         1.6030   -1.7190   -0.2660 h1        1 CB8      0.080700
     31 HAD         2.0950    0.9310   -1.0790 ho        1 CB8      0.405000
     32 HBA         2.1490    0.8170    1.4920 h1        1 CB8      0.079700
     33 HAC         3.5620   -1.6050    1.1950 ho        1 CB8      0.393000
     34 HAP1        1.4700   -2.1310    2.2440 hc        1 CB8      0.069200
     35 HAP2        1.7720   -0.7560    3.3930 hc        1 CB8      0.069200
     36 HAE        -1.1680    0.0380    3.8620 ho        1 CB8      0.426000
     37 HAO1       -2.5650   -0.1540    0.0790 hc        1 CB8      0.079700
     38 HAO2       -2.6370   -0.2930    1.8970 hc        1 CB8      0.079700
     39 HAF        -5.0740    2.9250   -6.4340 ha        1 CB8      0.124000
     40 HAG        -4.0500    1.5600   -8.2360 ha        1 CB8      0.122000
     41 HAL        -2.2480   -0.0850   -7.7180 ha        1 CB8      0.129000
     42 HAN1        0.5080   -0.9920   -2.5810 h1        1 CB8      0.061200
     43 HAN2       -1.0580   -1.5760   -1.8140 h1        1 CB8      0.061200
     44 HAJ        -1.3590    2.4020   -0.7100 ha        1 CB8      0.167000
     45 HAH        -2.1510    4.8250   -0.0430 ha        1 CB8      0.135000
     46 HAI        -3.4950    4.8060    2.2290 h4        1 CB8      0.153000
     47 HAM        -2.5740    1.3350   -2.3470 ha        1 CB8      0.178000
     48 HAK        -4.3130    2.6720   -4.0610 ha        1 CB8      0.138000
@<TRIPOS>BOND
     1    1    2 1   
     2    1   12 2   
     3    1   23 1   
     4    2    3 1   
     5    2    4 1   
     6    2   30 1   
     7    3   31 1   
     8    4    5 1   
     9    4    6 1   
    10    4   32 1   
    11    5   33 1   
    12    6    7 1   
    13    6   34 1   
    14    6   35 1   
    15    7    8 1   
    16    7   11 1   
    17    7   12 1   
    18    8    9 1   
    19    8   10 1   
    20   11   36 1   
    21   12   24 1   
    22   13   14 1   
    23   13   21 2   
    24   13   47 1   
    25   14   15 ar  
    26   14   19 ar  
    27   15   16 ar  
    28   15   48 1   
    29   16   17 ar  
    30   16   39 1   
    31   17   18 ar  
    32   17   40 1   
    33   18   19 ar  
    34   18   41 1   
    35   19   20 1   
    36   20   21 1   
    37   21   22 1   
    38   22   23 1   
    39   22   42 1   
    40   22   43 1   
    41   24   25 1   
    42   24   37 1   
    43   24   38 1   
    44   25   26 2   
    45   25   29 1   
    46   26   27 1   
    47   26   44 1   
    48   27   28 2   
    49   27   45 1   
    50   28   29 1   
    51   28   46 1   
@<TRIPOS>SUBSTRUCTURE
     1 CB8         1 TEMP              0 ****  ****    0 ROOT
