@<TRIPOS>MOLECULE
molecule
   48    51     1     0     0
SMALL
bcc


@<TRIPOS>ATOM
      1 CAV          0.0000     0.0000     0.0000 c2         1 CB8       0.018900
      2 CBB          1.5010     0.0000     0.0000 c3         1 CB8       0.176300
      3 OAD          1.9760     1.1640    -0.6790 oh         1 CB8      -0.599800
      4 CBA          2.0280     0.0000     1.4360 c3         1 CB8       0.114100
      5 OAC          3.4350    -0.2520     1.4310 oh         1 CB8      -0.626800
      6 CAP          1.3090    -1.1060     2.2170 c3         1 CB8      -0.107400
      7 CBC         -0.1640    -0.7180     2.3640 c3         1 CB8       0.087000
      8 CAT         -0.9390    -1.8920     2.9010 c          1 CB8       0.877600
      9 OAB         -1.0300    -2.0860     4.2270 o          1 CB8      -0.830300
     10 OAA         -1.4800    -2.6580     2.1410 o          1 CB8      -0.830300
     11 OAE         -0.2760     0.3800     3.2720 oh         1 CB8      -0.609800
     12 CAU         -0.7270    -0.3170     1.0310 c2         1 CB8      -0.018400
     13 CAM         -0.9640     0.8380    -4.3200 cc         1 CB8      -0.125200
     14 CAY         -1.9710     1.1680    -5.3160 ca         1 CB8      -0.076800
     15 CAK         -1.8820     2.0400    -6.4240 ca         1 CB8      -0.091000
     16 CAF         -2.9500     2.2160    -7.2480 ca         1 CB8      -0.141000
     17 CAG         -4.1420     1.5440    -7.0160 ca         1 CB8      -0.129000
     18 CAL         -4.2560     0.6890    -5.9460 ca         1 CB8      -0.094000
     19 CAZ         -3.1720     0.4920    -5.0840 ca         1 CB8      -0.019100
     20 SAS         -3.0150    -0.5200    -3.6540 ss         1 CB8      -0.075500
     21 CAX         -1.3550    -0.0190    -3.3980 cd         1 CB8      -0.013600
     22 CAN         -0.4850    -0.5080    -2.2690 c3         1 CB8       0.203600
     23 OAQ         -0.6370     0.3590    -1.1430 os         1 CB8      -0.324900
     24 CAO         -2.2260    -0.2800     0.8800 c3         1 CB8       0.025100
     25 CAW         -2.7440     1.0590     1.3340 cc         1 CB8       0.018600
     26 CAJ         -2.9750     2.1060     0.5380 cd         1 CB8      -0.183000
     27 CAH         -3.4510     3.2350     1.1820 cd         1 CB8      -0.160000
     28 CAI         -3.6070     3.1060     2.5010 cc         1 CB8      -0.127100
     29 SAR         -3.1440     1.4820     2.9940 ss         1 CB8      -0.093800
     30 HBB          1.8570    -0.8870    -0.5100 h1         1 CB8       0.036700
     31 HAD          2.8450     1.0050    -1.0070 ho         1 CB8       0.391000
     32 HBA          1.8260     0.9590     1.8970 h1         1 CB8       0.064700
     33 HAC          3.8670     0.3680     1.9940 ho         1 CB8       0.396000
     34 HAP1         1.3860    -2.0420     1.6770 hc         1 CB8       0.061200
     35 HAP2         1.7570    -1.2080     3.1980 hc         1 CB8       0.061200
     36 HAE          0.0280     0.1150     4.1240 ho         1 CB8       0.418000
     37 HAO1        -2.6700    -1.0630     1.4840 hc         1 CB8       0.082700
     38 HAO2        -2.4880    -0.4350    -0.1600 hc         1 CB8       0.082700
     39 HAF         -2.8690     2.8880    -8.0940 ha         1 CB8       0.122000
     40 HAG         -4.9850     1.6930    -7.6800 ha         1 CB8       0.125000
     41 HAL         -5.1880     0.1670    -5.7690 ha         1 CB8       0.131000
     42 HAN1         0.5510    -0.5110    -2.5860 h1         1 CB8       0.041700
     43 HAN2        -0.7820    -1.5130    -1.9940 h1         1 CB8       0.041700
     44 HAJ         -2.8030     2.0740    -0.5310 ha         1 CB8       0.149000
     45 HAH         -3.6780     4.1540     0.6560 ha         1 CB8       0.123000
     46 HAI         -3.9690     3.8810     3.1650 h4         1 CB8       0.148000
     47 HAM          0.0320     1.2640    -4.3350 ha         1 CB8       0.154000
     48 HAK         -0.9580     2.5710    -6.6180 ha         1 CB8       0.128000
@<TRIPOS>BOND
     1     1     2 1
     2     1    12 2
     3     1    23 1
     4     2     3 1
     5     2     4 1
     6     4     5 1
     7     4     6 1
     8     6     7 1
     9     7     8 1
    10     7    11 1
    11     7    12 1
    12     8     9 1
    13     8    10 1
    14    12    24 1
    15    13    14 1
    16    13    21 2
    17    14    15 ar
    18    14    19 ar
    19    15    16 ar
    20    16    17 ar
    21    17    18 ar
    22    18    19 ar
    23    19    20 1
    24    20    21 1
    25    21    22 1
    26    22    23 1
    27    24    25 1
    28    25    26 2
    29    25    29 1
    30    26    27 1
    31    27    28 2
    32    28    29 1
    33     2    30 1
    34     3    31 1
    35     4    32 1
    36     5    33 1
    37     6    34 1
    38     6    35 1
    39    11    36 1
    40    24    37 1
    41    24    38 1
    42    13    47 1
    43    15    48 1
    44    16    39 1
    45    17    40 1
    46    18    41 1
    47    22    42 1
    48    22    43 1
    49    26    44 1
    50    27    45 1
    51    28    46 1
@<TRIPOS>SUBSTRUCTURE
     1 CB8         1 TEMP              0 ****  ****    0 ROOT
