@<TRIPOS>MOLECULE
molecule
   44    45     1     0     0
SMALL
bcc


@<TRIPOS>ATOM
      1 C            0.0000     0.0000     0.0000 c          1 CB9       0.581900
      2 N            1.9960     1.1960    -0.6900 ns         1 CB9      -0.543900
      3 O           -0.6030     0.9050    -0.5230 o          1 CB9      -0.556100
      4 CA           1.5070     0.0000     0.0000 c3         1 CB9       0.024700
      5 CB           2.0180     0.0000     1.4430 c3         1 CB9       0.292600
      6 CAJ          2.7730     1.6830    -6.9470 ca         1 CB9      -0.167000
      7 CAK          2.8070     2.9800    -6.4730 ca         1 CB9      -0.169500
      8 CAL          2.5870     0.6290    -6.0670 ca         1 CB9      -0.169500
      9 CAM          2.6560     3.2270    -5.1180 ca         1 CB9      -0.096500
     10 CAN          2.8490     0.8690    -4.6940 ca         1 CB9      -0.096500
     11 NAP          1.5410    -1.2040     2.1810 n7         1 CB9      -0.807200
     12 SAQ          1.2310     1.3440     2.4250 ss         1 CB9      -0.444200
     13 CAR          2.9800    -1.4250     4.1110 c          1 CB9       0.874600
     14 CAS          4.0090     2.7620    -2.2450 c          1 CB9       0.905600
     15 CAT          2.1240     1.1940    -2.0320 c          1 CB9       0.718100
     16 CAU          2.6780     2.1620    -4.2260 ca         1 CB9      -0.004300
     17 CAX          1.6190    -0.9940     3.6300 c3         1 CB9       0.030500
     18 CAY          2.6270     2.4240    -2.7420 c3         1 CB9      -0.220400
     19 CAZ          1.3900     0.4750     4.0350 c3         1 CB9       0.093100
     20 H           -0.5380    -0.8610     0.3780 h4         1 CB9      -0.006800
     21 HN           2.0120     2.0760    -0.2150 hn         1 CB9       0.327500
     22 HA           1.8680    -0.8850    -0.5110 h1         1 CB9       0.105700
     23 HB           3.0980     0.0750     1.4810 h2         1 CB9       0.119700
     24 HAJ          2.8760     1.4910    -8.0080 ha         1 CB9       0.090000
     25 HAK          2.9410     3.8050    -7.1620 ha         1 CB9       0.101000
     26 HAL          2.5670    -0.3890    -6.4380 ha         1 CB9       0.101000
     27 HAM          2.6580     4.2460    -4.7490 ha         1 CB9       0.160000
     28 HAN          2.6400    -0.0980    -4.2530 ha         1 CB9       0.160000
     29 HNAP         2.1730    -1.9640     2.0230 hn         1 CB9       0.373800
     30 HAX          0.8650    -1.6060     4.1090 h1         1 CB9       0.064700
     31 HAY          1.9590     3.2530    -2.5450 hc         1 CB9       0.062700
     32 CAA          0.1040     0.6150     4.8520 c3         1 CB9      -0.075600
     33 CAB          2.5880     1.0120     4.8220 c3         1 CB9      -0.075600
     34 OAF          1.9340     0.1970    -2.6430 o          1 CB9      -0.659100
     35 OAG          3.1400    -1.7850     5.3070 o          1 CB9      -0.841800
     36 OAH          4.4820     3.9140    -2.4320 o          1 CB9      -0.826300
     37 HAA         -0.7040     0.1020     4.3440 hc         1 CB9       0.040200
     38 HAAA        -0.1440     1.6640     4.9580 hc         1 CB9       0.040200
     39 HAAB         0.2500     0.1780     5.8320 hc         1 CB9       0.040200
     40 HAB          2.4230     2.0560     5.0620 hc         1 CB9       0.040200
     41 HABA         3.4850     0.9170     4.2220 hc         1 CB9       0.040200
     42 HABB         2.7030     0.4450     5.7370 hc         1 CB9       0.040200
     43 OAE          4.7020     1.8840    -1.6670 o          1 CB9      -0.826300
     44 OAD          3.9520    -1.4480     3.3120 o          1 CB9      -0.841800
@<TRIPOS>BOND
     1     1     3 2
     2     1     4 1
     3     2     4 1
     4     2    15 1
     5     4     5 1
     6     5    11 1
     7     5    12 1
     8    32    19 1
     9    33    19 1
    10    44    13 1
    11    43    14 1
    12    34    15 2
    13    35    13 1
    14    36    14 1
    15     6     7 ar
    16     6     8 ar
    17     7     9 ar
    18     8    10 ar
    19     9    16 ar
    20    10    16 ar
    21    11    17 1
    22    12    19 1
    23    13    17 1
    24    14    18 1
    25    15    18 1
    26    16    18 1
    27    17    19 1
    28     1    20 1
    29     2    21 1
    30     4    22 1
    31     5    23 1
    32    32    37 1
    33    32    38 1
    34    32    39 1
    35    33    40 1
    36    33    41 1
    37    33    42 1
    38     6    24 1
    39     7    25 1
    40     8    26 1
    41     9    27 1
    42    10    28 1
    43    11    29 1
    44    17    30 1
    45    18    31 1
@<TRIPOS>SUBSTRUCTURE
     1 CB9         1 TEMP              0 ****  ****    0 ROOT
