@<TRIPOS>MOLECULE
molecule
   39    39     1     0     0
SMALL
bcc


@<TRIPOS>ATOM
      1 N1           0.0000     0.0000     0.0000 nb         1 CBA      -0.744000
      2 C2           1.3190     0.0000     0.0000 ca         1 CBA       0.307600
      3 C2A          2.0640    -0.0080    -1.3100 c3         1 CBA      -0.116400
      4 C3           2.0250     0.0000     1.1920 ca         1 CBA      -0.029200
      5 O3           3.3840    -0.0010     1.1870 oh         1 CBA      -0.500100
      6 C4           1.3250     0.0130     2.3940 ca         1 CBA      -0.055300
      7 C4A          2.0530     0.0210     3.7130 c3         1 CBA       0.186100
      8 C5          -0.0600     0.0130     2.3490 ca         1 CBA      -0.124600
      9 C5A         -0.8650     0.0200     3.6220 c3         1 CBA       0.182700
     10 C6          -0.6950     0.0060     1.1210 ca         1 CBA       0.397200
     11 P           -3.0540     0.0270     4.7050 p5         1 CBA       1.165900
     12 O1P         -2.6910     1.2400     5.4710 o          1 CBA      -0.916500
     13 O2P         -4.6380     0.0260     4.4210 o          1 CBA      -0.916500
     14 O3P         -2.6590    -1.2820     5.5530 o          1 CBA      -0.916500
     15 O4P         -2.2580     0.0190     3.3050 os         1 CBA      -0.570200
     16 N            2.2890    -1.3610     4.1500 n7         1 CBA      -0.784200
     17 CA           2.8810    -1.2850     5.4900 c3         1 CBA       0.297000
     18 OA           1.9390    -0.7050     6.3960 oh         1 CBA      -0.576800
     19 CB           3.2490    -2.6910     5.9680 c3         1 CBA       0.048100
     20 OB           4.2350    -3.2470     5.0990 oh         1 CBA      -0.574800
     21 C            4.1230    -0.4310     5.4450 c          1 CBA       0.866600
     22 O            4.2520     0.4890     6.2160 o          1 CBA      -0.868300
     23 OT           5.0830    -0.6930     4.5450 o          1 CBA      -0.868300
     24 CG           3.7970    -2.6190     7.3700 c          1 CBA       0.888600
     25 OD1          4.9190    -3.0040     7.6000 o          1 CBA      -0.870300
     26 OD2          3.0400    -2.1270     8.3630 o          1 CBA      -0.870300
     27 H2A1         2.7690    -0.8310    -1.3190 hc         1 CBA       0.017367
     28 H2A2         1.3610    -0.1270    -2.1250 hc         1 CBA       0.017367
     29 H2A3         2.5990     0.9270    -1.4270 hc         1 CBA       0.017367
     30 HO3          3.6990     0.8650     0.9880 ho         1 CBA       0.386000
     31 H4A1         3.0010     0.5310     3.5990 h1         1 CBA       0.065200
     32 H4A2         1.4530     0.5360     4.4540 h1         1 CBA       0.065200
     33 H5A1        -0.6260    -0.8610     4.2050 h1         1 CBA       0.092700
     34 H5A2        -0.6250     0.9080     4.1950 h1         1 CBA       0.092700
     35 H6          -1.7770     0.0060     1.0780 h4         1 CBA       0.053100
     36 HN           2.9340    -1.8030     3.5240 hn         1 CBA       0.364800
     37 HOA          2.3880    -0.1290     6.9910 ho         1 CBA       0.429000
     38 HB           2.3650    -3.3170     5.9580 h1         1 CBA       0.025700
     39 HOB          4.1380    -4.1850     5.0730 ho         1 CBA       0.337000
@<TRIPOS>BOND
     1     1     2 ar
     2     1    10 ar
     3     2     3 1
     4     2     4 ar
     5     3    27 1
     6     3    28 1
     7     3    29 1
     8     4     5 1
     9     4     6 ar
    10     5    30 1
    11     6     7 1
    12     6     8 ar
    13     7    16 1
    14     7    31 1
    15     7    32 1
    16     8     9 1
    17     8    10 ar
    18     9    15 1
    19     9    33 1
    20     9    34 1
    21    10    35 1
    22    11    12 1
    23    11    13 1
    24    11    14 1
    25    11    15 1
    26    16    17 1
    27    16    36 1
    28    17    18 1
    29    17    19 1
    30    17    21 1
    31    18    37 1
    32    19    20 1
    33    19    24 1
    34    19    38 1
    35    20    39 1
    36    21    22 1
    37    21    23 1
    38    24    25 1
    39    24    26 1
@<TRIPOS>SUBSTRUCTURE
     1 CBA         1 TEMP              0 ****  ****    0 ROOT
