@<TRIPOS>MOLECULE
CBB
   65    68     1     0     0
SMALL
bcc


@<TRIPOS>ATOM
      1 C1           0.0000     0.0000     0.0000 ca         1 CBB      -0.070000
      2 C2           1.4080     0.0000     0.0000 ca         1 CBB      -0.138000
      3 C3           2.0900     0.0000     1.2350 ca         1 CBB      -0.194200
      4 C4           1.3720     0.0280     2.4760 ca         1 CBB      -0.108800
      5 C5          -0.0460     0.0110     2.4560 ca         1 CBB      -0.025000
      6 C6          -0.7310    -0.0120     1.2160 ca         1 CBB      -0.124000
      7 N7           3.4410    -0.0040     1.5490 na         1 CBB       0.483600
      8 C8           3.6050     0.0480     2.8860 cc         1 CBB      -0.393300
      9 C9           2.3340     0.0650     3.5110 cd         1 CBB      -0.042200
     10 C10          4.4810     0.0180     0.5430 c3         1 CBB      -0.011500
     11 C11          5.0460    -1.3290     0.2180 ce         1 CBB      -0.043200
     12 C14          4.8830    -2.5460     0.9420 ce         1 CBB      -0.055000
     13 C15          5.5070    -3.7270     0.4580 c2         1 CBB      -0.143200
     14 C16          6.2840    -3.6850    -0.7260 c3         1 CBB       0.063800
     15 C17          6.4020    -2.4550    -1.4280 c3         1 CBB      -0.025800
     16 C18          5.7900    -1.2970    -0.9400 c2         1 CBB      -0.199200
     17 C19          7.1160    -2.2890    -2.6810 c2         1 CBB       0.124200
     18 N20          8.0270    -3.1750    -3.0820 nz         1 CBB       0.187400
     19 N21          6.7930    -1.1770    -3.3870 n2         1 CBB      -0.431100
     20 C31          4.8350     0.1630     3.5300 c          1 CBB       0.779300
     21 O32          4.7590     0.6320     4.7580 os         1 CBB      -0.391900
     22 C33          5.9750     0.7920     5.5440 c3         1 CBB       0.286400
     23 C34          6.8760     1.9390     5.0900 c3         1 CBB      -0.112700
     24 C37          6.5770     2.8260     4.0220 c3         1 CBB      -0.001400
     25 C38          7.5060     3.8440     3.6620 c3         1 CBB      -0.019400
     26 C39          8.7230     3.9750     4.3730 c3         1 CBB       0.028600
     27 C40          9.0110     3.0930     5.4510 c3         1 CBB      -0.114000
     28 C41          8.0840     2.0900     5.8040 c3         1 CBB       0.043600
     29 C42         10.2610     3.1120     6.2070 c2         1 CBB       0.123200
     30 N43         10.2450     3.0320     7.5300 nz         1 CBB       0.217400
     31 N44         11.4250     3.1230     5.5630 n2         1 CBB      -0.441100
     32 O49          5.8870    -0.1060     3.0350 o          1 CBB      -0.627000
     33 HC1         -0.5840    -0.0210    -0.9120 ha         1 CBB       0.111000
     34 HC2          1.6620     0.0500    -1.0520 ha         1 CBB       0.122000
     35 HC5         -0.6640     0.0180     3.3450 ha         1 CBB       0.112000
     36 HC6         -1.8140    -0.0280     1.2000 ha         1 CBB       0.118000
     37 HC9          2.1380     0.1050     4.5760 ha         1 CBB       0.141000
     38 H101         5.2850     0.6530     0.8940 h1         1 CBB       0.053700
     39 H102         4.0730     0.4470    -0.3640 h1         1 CBB       0.053700
     40 H14          4.2870    -2.5710     1.8470 ha         1 CBB       0.133000
     41 H15          5.3990    -4.6570     1.0020 ha         1 CBB       0.135000
     42 H16          5.8660    -4.4110    -1.4130 hc         1 CBB       0.006200
     43 H161         7.2850    -4.0080    -0.4680 hc         1 CBB       0.006200
     44 H17          7.3040    -2.2380    -0.8700 hc         1 CBB       0.021700
     45 H118         5.8890    -0.3670    -1.4870 ha         1 CBB       0.144000
     46 H201         8.4200    -2.8780    -3.9530 hn         1 CBB       0.220133
     47 H202         7.5930    -4.0690    -3.1990 hn         1 CBB       0.220133
     48 H21          7.2410    -0.9910    -4.2620 hn         1 CBB       0.337400
     49 H331         6.5410    -0.1300     5.4910 h1         1 CBB       0.015200
     50 H332         5.6950     0.9650     6.5760 h1         1 CBB       0.015200
     51 H334         6.3690     2.6120     5.7710 hc         1 CBB      -0.001300
     52 H37          5.6430     3.3180     4.2670 hc         1 CBB       0.032200
     53 H371         6.4110     2.2200     3.1400 hc         1 CBB       0.032200
     54 H38          7.7600     3.6910     2.6200 hc         1 CBB       0.032200
     55 H381         6.9870     4.7920     3.7410 hc         1 CBB       0.032200
     56 H39          8.7570     4.9830     4.7670 hc         1 CBB       0.015200
     57 H391         9.5260     3.8730     3.6530 hc         1 CBB       0.015200
     58 H40          8.5590     3.7920     6.1440 hc         1 CBB      -0.004300
     59 H411         7.8200     2.2550     6.8410 hc         1 CBB      -0.003300
     60 H412         8.6070     1.1430     5.7440 hc         1 CBB      -0.003300
     61 H431         9.5350     3.6370     7.8930 hn         1 CBB       0.221133
     62 H432        10.0540     2.0890     7.8050 hn         1 CBB       0.221133
     63 H44         11.4440     3.1510     4.5630 hn         1 CBB       0.378400
     64 H203         8.7550    -3.2370    -2.3980 hn         1 CBB       0.220133
     65 H433        11.1330     3.3200     7.8920 hn         1 CBB       0.221133
@<TRIPOS>BOND
     1     1     2 ar  
     2     1     6 ar  
     3     1    33 1   
     4     2     3 ar  
     5     2    34 1   
     6     3     4 ar  
     7     3     7 1   
     8     4     5 ar  
     9     4     9 1   
    10     5     6 ar  
    11     5    35 1   
    12     6    36 1   
    13     7     8 1   
    14     7    10 1   
    15     8     9 2   
    16     8    20 1   
    17     9    37 1   
    18    10    11 1   
    19    10    38 1   
    20    10    39 1   
    21    11    12 1   
    22    11    16 2   
    23    12    13 2   
    24    12    40 1   
    25    13    14 1   
    26    13    41 1   
    27    14    15 1   
    28    14    42 1   
    29    14    43 1   
    30    15    16 1   
    31    15    17 1   
    32    15    44 1   
    33    16    45 1   
    34    17    18 1   
    35    17    19 2   
    36    18    46 1   
    37    18    47 1   
    38    18    64 1   
    39    19    48 1   
    40    20    21 1   
    41    20    32 2   
    42    21    22 1   
    43    22    23 1   
    44    22    49 1   
    45    22    50 1   
    46    23    24 1   
    47    23    28 1   
    48    23    51 1   
    49    24    25 1   
    50    24    52 1   
    51    24    53 1   
    52    25    26 1   
    53    25    54 1   
    54    25    55 1   
    55    26    27 1   
    56    26    56 1   
    57    26    57 1   
    58    27    28 1   
    59    27    29 1   
    60    27    58 1   
    61    28    59 1   
    62    28    60 1   
    63    29    30 1   
    64    29    31 2   
    65    30    61 1   
    66    30    62 1   
    67    30    65 1   
    68    31    63 1   
@<TRIPOS>SUBSTRUCTURE
     1 CBB         1 TEMP              0 ****  ****    0 ROOT
