@<TRIPOS>MOLECULE
CBC
   39    40     1     0     0
SMALL
bcc


@<TRIPOS>ATOM
      1 F49       -98.5770   -7.3470 -115.3200 f         1 CBC     -0.200300
      2 C46       -97.8170   -8.0500 -116.2180 c3        1 CBC      0.668200
      3 F50       -96.9240   -7.1530 -116.7430 f         1 CBC     -0.200300
      4 F51       -97.0660   -8.9050 -115.4620 f         1 CBC     -0.200300
      5 C41       -98.6700   -8.7560 -117.3050 ca        1 CBC      0.000700
      6 C42       -98.5740  -10.1350 -117.3820 ca        1 CBC     -0.113000
      7 C43       -99.3120  -10.8540 -118.3370 ca        1 CBC      0.047000
      8 C44      -100.1500  -10.1690 -119.2180 ca        1 CBC     -0.134000
      9 C45      -100.2470   -8.7890 -119.1430 ca        1 CBC      0.030000
     10 C40       -99.5160   -8.0210 -118.1890 ca        1 CBC     -0.584500
     11 S1        -99.7240   -6.4740 -118.2200 s4        1 CBC      1.646300
     12 O38       -99.0610   -5.6980 -117.3440 o         1 CBC     -0.371900
     13 O39      -100.5770   -5.9850 -119.1450 o         1 CBC     -0.371900
     14 N33        86.6910   12.1260   97.9780 n3        1 CBC     -0.642600
     15 N32        85.6000   12.0380   97.1170 n4        1 CBC     -0.455600
     16 C39        85.8430   11.9040   95.5960 c         1 CBC      0.572300
     17 O37        87.0110   11.8830   95.2330 o         1 CBC     -0.429100
     18 C54        84.6510   11.8220   94.8110 cc        1 CBC     -0.168100
     19 C53        84.4860   11.6970   93.4360 cd        1 CBC      0.079800
     20 O40        83.4000   11.8700   95.4880 os        1 CBC     -0.225200
     21 C51        82.4400   11.7700   94.4790 ca        1 CBC      0.120100
     22 C50        83.0660   11.6620   93.1960 ca        1 CBC     -0.159800
     23 C49        82.2710   11.5510   92.0520 ca        1 CBC     -0.032000
     24 C52        81.0590   11.7720   94.6540 ca        1 CBC     -0.127000
     25 C47        80.2900   11.6610   93.4990 ca        1 CBC     -0.041000
     26 C48        80.8860   11.5530   92.2220 ca        1 CBC     -0.005600
     27 CL1        79.8840   11.4210   90.8650 cl        1 CBC     -0.026400
     28 H42       -97.9110  -10.6870 -116.6860 ha        1 CBC      0.205000
     29 H43       -99.2240  -11.9560 -118.3850 ha        1 CBC      0.194000
     30 H44      -100.7360  -10.7230 -119.9750 ha        1 CBC      0.196000
     31 H45      -100.9190   -8.2630 -119.8540 ha        1 CBC      0.189000
     32 H33        87.2730   11.2970   97.8850 hn        1 CBC      0.415800
     33 H32        85.0300   11.2240   97.4140 hn        1 CBC      0.486800
     34 H53        85.2760   11.6380   92.6820 ha        1 CBC      0.204000
     35 H49        82.7270   11.4660   91.0520 ha        1 CBC      0.178000
     36 H52        80.6000   11.8570   95.6490 ha        1 CBC      0.176000
     37 H47        79.1890   11.6580   93.5830 ha        1 CBC      0.180000
     38 H332       87.2580   12.9350   97.7380 hn        1 CBC      0.415800
     39 H322       85.0150   12.8820   97.2650 hn        1 CBC      0.486800
@<TRIPOS>BOND
     1    1    2 1
     2    2    3 1
     3    2    4 1
     4    2    5 1
     5    5    6 ar
     6    5   10 ar
     7    6    7 ar
     8    6   28 1
     9    7    8 ar
    10    7   29 1
    11    8    9 ar
    12    8   30 1
    13    9   10 ar
    14    9   31 1
    15   10   11 1
    16   11   12 1
    17   11   13 1
    18   14   15 1
    19   14   32 1
    20   14   38 1
    21   15   16 1
    22   15   33 1
    23   15   39 1
    24   16   17 2
    25   16   18 1
    26   18   19 2
    27   18   20 1
    28   19   22 1
    29   19   34 1
    30   20   21 1
    31   21   22 ar
    32   21   24 ar
    33   22   23 ar
    34   23   26 ar
    35   23   35 1
    36   24   25 ar
    37   24   36 1
    38   25   26 ar
    39   25   37 1
    40   26   27 1
@<TRIPOS>SUBSTRUCTURE
     1 CBC         1 TEMP              0 ****  ****    0 ROOT
