@<TRIPOS>MOLECULE
molecule
   29    30     1     0     0
SMALL
bcc


@<TRIPOS>ATOM
      1 C1           0.0000     0.0000     0.0000 c3         1 CBE      -0.062900
      2 C2           1.5100     0.0000     0.0000 c2         1 CBE       0.112900
      3 C3           2.0990     0.0000     1.2040 ce         1 CBE      -0.124600
      4 S4           3.8680    -0.0010     1.1380 ss         1 CBE      -0.286700
      5 C5           4.3350     0.5980    -0.5160 c3         1 CBE      -0.029300
      6 C6           3.1250     0.9970    -1.3820 c3         1 CBE       0.130400
      7 O7           2.1130    -0.0000    -1.2310 os         1 CBE      -0.311900
      8 C8           1.3390    -0.0000     2.4740 c          1 CBE       0.709300
      9 O9           0.3550     0.7260     2.6010 o          1 CBE      -0.605100
     10 N10          1.7210    -0.7850     3.4770 ns         1 CBE      -0.462100
     11 C11          0.9950    -0.7850     4.6920 ca         1 CBE       0.047600
     12 C12          1.6730    -0.6980     5.9130 ca         1 CBE      -0.128000
     13 C13          0.9540    -0.6980     7.1150 ca         1 CBE      -0.119000
     14 C14         -0.4440    -0.7840     7.0940 ca         1 CBE      -0.136000
     15 C15         -1.1220    -0.8700     5.8730 ca         1 CBE      -0.119000
     16 C16         -0.4030    -0.8710     4.6710 ca         1 CBE      -0.128000
     17 H11         -0.3610    -0.8100     0.6220 hc         1 CBE       0.064367
     18 H12A        -0.3610    -0.1340    -1.0130 hc         1 CBE       0.064367
     19 H13A        -0.3610     0.9440     0.3910 hc         1 CBE       0.064367
     20 H51          4.9790     1.4620    -0.4010 h1         1 CBE       0.081200
     21 H52          4.8830    -0.1850    -1.0260 h1         1 CBE       0.081200
     22 H61          2.7430     1.9560    -1.0530 h1         1 CBE       0.070700
     23 H62          3.4260     1.0560    -2.4210 h1         1 CBE       0.070700
     24 H10          2.5130    -1.3870     3.3680 hn         1 CBE       0.333500
     25 H12          2.7540    -0.6320     5.9290 ha         1 CBE       0.141500
     26 H13          1.4790    -0.6310     8.0600 ha         1 CBE       0.134000
     27 H14         -1.0000    -0.7840     8.0240 ha         1 CBE       0.131000
     28 H15         -2.2030    -0.9370     5.8570 ha         1 CBE       0.134000
     29 H16         -0.9280    -0.9380     3.7260 ha         1 CBE       0.141500
@<TRIPOS>BOND
     1     1     2 1
     2     1    17 1
     3     1    18 1
     4     1    19 1
     5     2     3 2
     6     2     7 1
     7     3     4 1
     8     3     8 1
     9     4     5 1
    10     5     6 1
    11     5    20 1
    12     5    21 1
    13     6     7 1
    14     6    22 1
    15     6    23 1
    16     8     9 2
    17     8    10 1
    18    10    11 1
    19    10    24 1
    20    11    12 ar
    21    11    16 ar
    22    12    13 ar
    23    12    25 1
    24    13    14 ar
    25    13    26 1
    26    14    15 ar
    27    14    27 1
    28    15    16 ar
    29    15    28 1
    30    16    29 1
@<TRIPOS>SUBSTRUCTURE
     1 CBE         1 TEMP              0 ****  ****    0 ROOT
