@<TRIPOS>MOLECULE
CBF
   29    29     1     0     0
SMALL
bcc


@<TRIPOS>ATOM
      1 O6           0.0000     0.0000     0.0000 oh         1 CBF      -0.591800
      2 C6           1.4280     0.0000     0.0000 c3         1 CBF       0.228400
      3 C5           1.9390     0.0000     1.4430 c3         1 CBF       0.174100
      4 O5           1.5610    -1.2210     2.0810 os         1 CBF      -0.435600
      5 C1           1.9670    -1.3150     3.4480 c3         1 CBF       0.303600
      6 O1           1.3990    -0.2330     4.1890 oh         1 CBF      -0.530800
      7 C7           1.4930    -2.6240     4.0250 c          1 CBF       0.303100
      8 O7           0.6730    -2.6310     4.9180 o          1 CBF      -0.369100
      9 N1           1.9820    -3.7870     3.5490 nz         1 CBF       0.193600
     10 C2           3.4950    -1.2430     3.5310 c3         1 CBF       0.144100
     11 O2           3.9010    -1.2780     4.9000 oh         1 CBF      -0.558800
     12 C3           3.9720     0.0620     2.8880 c3         1 CBF       0.156100
     13 O3           5.4010     0.1040     2.8950 oh         1 CBF      -0.582800
     14 C4           3.4640     0.1230     1.4440 c3         1 CBF       0.143100
     15 O4           3.8430     1.3700     0.8580 oh         1 CBF      -0.559800
     16 HO6         -0.3140     0.1510    -0.8760 ho         1 CBF       0.411000
     17 H61          1.7890     0.8840    -0.5110 h1         1 CBF       0.007200
     18 H62          1.7890    -0.8850    -0.5110 h1         1 CBF       0.007200
     19 H5           1.5100     0.8360     1.9830 h1         1 CBF       0.060700
     20 HO1          0.4590    -0.2820     4.1460 ho         1 CBF       0.429000
     21 HN11         2.1910    -3.6870     2.5750 hn         1 CBF       0.250800
     22 HN12         2.8160    -4.0270     4.0470 hn         1 CBF       0.250800
     23 H2           3.9240    -2.0840     2.9990 h1         1 CBF      -0.006300
     24 HO2          4.6880    -1.7920     4.9810 ho         1 CBF       0.410000
     25 H3           3.5780     0.9030     3.4450 h1         1 CBF       0.059700
     26 HO3          5.6910     0.8700     3.3630 ho         1 CBF       0.424000
     27 H4           3.8930    -0.6940     0.8760 h1         1 CBF       0.014700
     28 HO4          4.5200     1.2240     0.2180 ho         1 CBF       0.412000
     29 H13          1.3000    -4.5100     3.6700 hn         1 CBF       0.250800
@<TRIPOS>BOND
     1     1     2 1   
     2     1    16 1   
     3     2     3 1   
     4     2    17 1   
     5     2    18 1   
     6     3     4 1   
     7     3    14 1   
     8     3    19 1   
     9     4     5 1   
    10     5     6 1   
    11     5     7 1   
    12     5    10 1   
    13     6    20 1   
    14     7     8 2   
    15     7     9 1   
    16     9    21 1   
    17     9    22 1   
    18     9    29 1   
    19    10    11 1   
    20    10    12 1   
    21    10    23 1   
    22    11    24 1   
    23    12    13 1   
    24    12    14 1   
    25    12    25 1   
    26    13    26 1   
    27    14    15 1   
    28    14    27 1   
    29    15    28 1   
@<TRIPOS>SUBSTRUCTURE
     1 CBF         1 TEMP              0 ****  ****    0 ROOT
