@<TRIPOS>MOLECULE
molecule
   10     9     1     0     0
SMALL
bcc


@<TRIPOS>ATOM
      1 C1           0.0000     0.0000     0.0000 c          1 CBG       0.567900
      2 O1           1.2080     0.0000     0.0000 o          1 CBG      -0.522100
      3 C2          -0.7530     0.0000     1.3050 c3         1 CBG      -0.206400
      4 C3          -1.7250     1.1810     1.3330 c3         1 CBG      -0.086100
      5 H11         -0.5410    -0.0410    -0.9370 h4         1 CBG      -0.006800
      6 H21         -0.0520     0.0890     2.1260 hc         1 CBG       0.067200
      7 H22         -1.3070    -0.9260     1.4020 hc         1 CBG       0.067200
      8 H31         -2.1970     1.2360     2.3070 hc         1 CBG       0.039367
      9 H32         -1.1830     2.0990     1.1420 hc         1 CBG       0.039367
     10 H33         -2.4830     1.0430     0.5720 hc         1 CBG       0.039367
@<TRIPOS>BOND
     1     1     2 2
     2     1     3 1
     3     1     5 1
     4     3     4 1
     5     3     6 1
     6     3     7 1
     7     4     8 1
     8     4     9 1
     9     4    10 1
@<TRIPOS>SUBSTRUCTURE
     1 CBG         1 TEMP              0 ****  ****    0 ROOT
