@<TRIPOS>MOLECULE
CBG
   10     9     1     0     0
SMALL
bcc


@<TRIPOS>ATOM
      1 C1          0.0360    0.0050    0.0110 c         1 CBG      0.564900
      2 O1          1.2100   -0.3560   -0.0840 o         1 CBG     -0.528100
      3 C2         -0.6940    0.0720    1.3170 c3        1 CBG     -0.204400
      4 C3         -1.7680    1.1280    1.3080 c3        1 CBG     -0.092100
      5 H11        -0.5570    0.2960   -0.8850 h4        1 CBG     -0.006800
      6 H21         0.0340    0.2650    2.1500 hc        1 CBG      0.073200
      7 H22        -1.1500   -0.9390    1.5050 hc        1 CBG      0.073200
      8 H31        -1.3250    2.1400    1.1450 hc        1 CBG      0.040033
      9 H32        -2.3080    1.1340    2.2850 hc        1 CBG      0.040033
     10 H33        -2.5100    0.9340    0.4960 hc        1 CBG      0.040033
@<TRIPOS>BOND
     1    1    2 2   
     2    1    3 1   
     3    1    5 1   
     4    3    4 1   
     5    3    6 1   
     6    3    7 1   
     7    4    8 1   
     8    4    9 1   
     9    4   10 1   
@<TRIPOS>SUBSTRUCTURE
     1 CBG         1 TEMP              0 ****  ****    0 ROOT
