@<TRIPOS>MOLECULE
CBH
   31    30     1     0     0
SMALL
bcc


@<TRIPOS>ATOM
      1 O11          0.0000     0.0000     0.0000 o          1 CBH      -0.821800
      2 C12          1.3430     0.0000     0.0000 c          1 CBH       0.957600
      3 O13          1.9450     0.0030    -1.0460 o          1 CBH      -0.821800
      4 C14          2.0960     0.0000     1.3050 c3         1 CBH      -0.204500
      5 N15          3.3790    -0.6920     1.1290 nz         1 CBH       0.081400
      6 C16          2.3500     1.4410     1.7490 c3         1 CBH      -0.001400
      7 C17          3.1160     1.4400     3.0730 c3         1 CBH       0.037700
      8 S18          3.4170     3.1490     3.6000 ss         1 CBH      -0.382200
      9 C19          4.3120     2.8500     5.1480 c3         1 CBH       0.096700
     10 C20          4.6810     4.1860     5.7920 c3         1 CBH      -0.022400
     11 C21          5.4360     3.9340     7.0970 c3         1 CBH      -0.014400
     12 C22          5.8060     5.2720     7.7410 c3         1 CBH      -0.132400
     13 C23          6.5490     5.0230     9.0270 c          1 CBH       0.980600
     14 O25          6.9760     6.0580     9.7680 o          1 CBH      -0.903800
     15 O24          6.7610     3.8920     9.3930 o          1 CBH      -0.903800
     16 H14          1.5110    -0.5120     2.0600 hx         1 CBH       0.087700
     17 H151         3.2530    -1.4790     0.5240 hn         1 CBH       0.211133
     18 H152         4.0440    -0.0630     0.7230 hn         1 CBH       0.211133
     19 H161         2.9350     1.9530     0.9940 hc         1 CBH       0.065700
     20 H162         1.4030     1.9510     1.8790 hc         1 CBH       0.065700
     21 H171         4.0630     0.9300     2.9420 h1         1 CBH       0.018700
     22 H172         2.5310     0.9280     3.8280 h1         1 CBH       0.018700
     23 H191         3.6830     2.2850     5.8250 h1         1 CBH       0.031700
     24 H192         5.2140     2.2880     4.9400 h1         1 CBH       0.031700
     25 H201         3.7790     4.7480     6.0000 hc         1 CBH       0.022200
     26 H102         5.3100     4.7520     5.1150 hc         1 CBH       0.022200
     27 H211         6.3380     3.3720     6.8890 hc         1 CBH       0.020700
     28 H212         4.8070     3.3690     7.7740 hc         1 CBH       0.020700
     29 H221         4.9040     5.8350     7.9490 hc         1 CBH       0.007200
     30 H222         6.4350     5.8370     7.0640 hc         1 CBH       0.007200
     31 H153         3.7200    -0.9960     2.0190 hn         1 CBH       0.211133
@<TRIPOS>BOND
     1     1     2 1   
     2     2     3 1   
     3     2     4 1   
     4     4     5 1   
     5     4     6 1   
     6     4    16 1   
     7     5    17 1   
     8     5    18 1   
     9     5    31 1   
    10     6     7 1   
    11     6    19 1   
    12     6    20 1   
    13     7     8 1   
    14     7    21 1   
    15     7    22 1   
    16     8     9 1   
    17     9    10 1   
    18     9    23 1   
    19     9    24 1   
    20    10    11 1   
    21    10    25 1   
    22    10    26 1   
    23    11    12 1   
    24    11    27 1   
    25    11    28 1   
    26    12    13 1   
    27    12    29 1   
    28    12    30 1   
    29    13    14 1   
    30    13    15 1   
@<TRIPOS>SUBSTRUCTURE
     1 CBH         1 TEMP              0 ****  ****    0 ROOT
