@<TRIPOS>MOLECULE
CBJ
   37    40     1     0     0
SMALL
bcc


@<TRIPOS>ATOM
      1 O1           0.0000     0.0000     0.0000 o          1 CBJ      -0.573500
      2 C2           1.2140     0.0000     0.0000 c          1 CBJ       0.517500
      3 C3           2.0990     0.0000     1.2100 c          1 CBJ       0.560700
      4 O4           1.7610     0.0010     2.3750 o          1 CBJ      -0.494100
      5 C5           3.4720    -0.0020     0.6710 ca         1 CBJ      -0.284600
      6 C6           4.7310    -0.0030     1.2720 ca         1 CBJ       0.032000
      7 C7           5.8660    -0.0050     0.4850 ca         1 CBJ      -0.024900
      8 Br8          7.5760    -0.0060     1.2920 br         1 CBJ      -0.148100
      9 C9           5.7510    -0.0060    -0.8950 ca         1 CBJ      -0.019000
     10 C10          4.5080    -0.0060    -1.5010 ca         1 CBJ      -0.129000
     11 C11          3.3550    -0.0030    -0.7290 ca         1 CBJ      -0.011400
     12 N12          2.0070    -0.0070    -1.0840 n          1 CBJ       0.032000
     13 C13          1.5190    -0.0150    -2.4650 c3         1 CBJ       0.097300
     14 C14          1.2520     1.3990    -2.9120 ca         1 CBJ      -0.108300
     15 C15          1.5880     2.4560    -2.0940 ca         1 CBJ      -0.135000
     16 C16          1.3430     3.7580    -2.4970 ca         1 CBJ      -0.128000
     17 C17          0.7590     4.0130    -3.7270 ca         1 CBJ       0.045100
     18 O18          0.5260     5.3020    -4.1000 os         1 CBJ      -0.313900
     19 C19          0.2810     5.5350    -5.4910 c3         1 CBJ       0.163400
     20 C20         -0.7230     4.4840    -5.9850 c3         1 CBJ       0.163400
     21 O21         -0.1540     3.1870    -5.7750 os         1 CBJ      -0.258900
     22 C22          0.4160     2.9600    -4.5650 ca         1 CBJ       0.091100
     23 C23          0.6670     1.6420    -4.1580 ca         1 CBJ      -0.049600
     24 C24          0.3110     0.5150    -5.0400 c          1 CBJ       0.974200
     25 O25         -0.8180     0.0640    -5.0250 o          1 CBJ      -0.875800
     26 O26          1.2370    -0.0160    -5.8620 o          1 CBJ      -0.875800
     27 H6           4.8170    -0.0940     2.3480 ha         1 CBJ       0.117000
     28 H9           6.6450    -0.0080    -1.5070 ha         1 CBJ       0.113000
     29 H10          4.4340    -0.0070    -2.5820 ha         1 CBJ       0.137000
     30 H13          0.6030    -0.5900    -2.5210 h1         1 CBJ       0.065700
     31 H13A         2.2660    -0.4620    -3.1100 h1         1 CBJ       0.065700
     32 H15          2.0450     2.2670    -1.1300 ha         1 CBJ       0.092000
     33 H16          1.6110     4.5820    -1.8470 ha         1 CBJ       0.100000
     34 H19         -0.1340     6.5270    -5.6270 h1         1 CBJ       0.013200
     35 H19A         1.2080     5.4420    -6.0450 h1         1 CBJ       0.013200
     36 H20         -0.8920     4.6280    -7.0450 h1         1 CBJ       0.018700
     37 H20A        -1.6350     4.5680    -5.4060 h1         1 CBJ       0.018700
@<TRIPOS>BOND
     1     1     2 2   
     2     2     3 1   
     3     2    12 1   
     4     3     4 2   
     5     3     5 1   
     6     5     6 ar  
     7     5    11 ar  
     8     6     7 ar  
     9     6    27 1   
    10     7     8 1   
    11     7     9 ar  
    12     9    10 ar  
    13     9    28 1   
    14    10    11 ar  
    15    10    29 1   
    16    11    12 1   
    17    12    13 1   
    18    13    14 1   
    19    13    30 1   
    20    13    31 1   
    21    14    15 ar  
    22    14    23 ar  
    23    15    16 ar  
    24    15    32 1   
    25    16    17 ar  
    26    16    33 1   
    27    17    18 1   
    28    17    22 ar  
    29    18    19 1   
    30    19    20 1   
    31    19    34 1   
    32    19    35 1   
    33    20    21 1   
    34    20    36 1   
    35    20    37 1   
    36    21    22 1   
    37    22    23 ar  
    38    23    24 1   
    39    24    25 1   
    40    24    26 1   
@<TRIPOS>SUBSTRUCTURE
     1 CBJ         1 TEMP              0 ****  ****    0 ROOT
