@<TRIPOS>MOLECULE
CBL
   37    37     1     0     0
SMALL
bcc


@<TRIPOS>ATOM
      1 C1           0.0000     0.0000     0.0000 ca         1 CBL       0.044600
      2 C2           1.3890     0.0000     0.0000 ca         1 CBL      -0.188500
      3 C3           2.0770     0.0000     1.1960 ca         1 CBL      -0.051500
      4 C4           1.3860    -0.0010     2.3940 ca         1 CBL      -0.100300
      5 C5           0.0030    -0.0080     2.3970 ca         1 CBL      -0.051500
      6 C6          -0.6910    -0.0020     1.2040 ca         1 CBL      -0.188500
      7 C7           2.1410    -0.0010     3.6980 c3         1 CBL       0.018900
      8 C8           2.3950     1.4410     4.1400 c3         1 CBL      -0.013400
      9 C9           3.1620     1.4410     5.4640 c3         1 CBL      -0.134400
     10 C10          3.4140     2.8610     5.8990 c          1 CBL       0.979600
     11 N11         -0.6990    -0.0000    -1.2090 nh         1 CBL      -0.396000
     12 C12          0.0260     0.1210    -2.4750 c3         1 CBL       0.159300
     13 C13          0.3980    -1.2720    -2.9860 c3         1 CBL       0.054500
     14 Cl14         1.2910    -1.1230    -4.5440 cl         1 CBL      -0.153400
     15 C15         -2.1590    -0.1210    -1.2100 c3         1 CBL       0.159300
     16 C16         -2.7860     1.2660    -1.0630 c3         1 CBL       0.054500
     17 Cl17        -4.5760     1.1040    -0.9220 cl         1 CBL      -0.153400
     18 O18          3.0200     3.7800     5.2190 o          1 CBL      -0.905300
     19 O19          4.0750     3.1070     7.0410 o          1 CBL      -0.905300
     20 H2           1.9310     0.0010    -0.9380 ha         1 CBL       0.109500
     21 H3           3.1610     0.0020     1.1970 ha         1 CBL       0.107500
     22 H5          -0.5350    -0.0090     3.3370 ha         1 CBL       0.107500
     23 H6          -1.7740    -0.0040     1.2080 ha         1 CBL       0.109500
     24 H71          1.5570    -0.5120     4.4530 hc         1 CBL       0.008700
     25 H72          3.0880    -0.5100     3.5670 hc         1 CBL       0.008700
     26 H81          2.9790     1.9530     3.3840 hc         1 CBL       0.023700
     27 H82          1.4480     1.9510     4.2710 hc         1 CBL       0.023700
     28 H91          4.1080     0.9300     5.3330 hc         1 CBL       0.003700
     29 H92          2.5780     0.9310     6.2200 hc         1 CBL       0.003700
     30 H121         0.9270     0.7010    -2.3200 h1         1 CBL       0.032950
     31 H122        -0.6020     0.6170    -3.2040 h1         1 CBL       0.032950
     32 H131        -0.5030    -1.8520    -3.1410 h1         1 CBL       0.032950
     33 H132         1.0260    -1.7680    -2.2570 h1         1 CBL       0.032950
     34 H151        -2.4700    -0.7470    -0.3830 h1         1 CBL       0.032950
     35 H152        -2.4840    -0.5660    -2.1430 h1         1 CBL       0.032950
     36 H161        -2.3950     1.7460    -0.1740 h1         1 CBL       0.032950
     37 H162        -2.5450     1.8650    -1.9330 h1         1 CBL       0.032950
@<TRIPOS>BOND
     1     1     2 ar  
     2     1     6 ar  
     3     1    11 1   
     4     2     3 ar  
     5     2    20 1   
     6     3     4 ar  
     7     3    21 1   
     8     4     5 ar  
     9     4     7 1   
    10     5     6 ar  
    11     5    22 1   
    12     6    23 1   
    13     7     8 1   
    14     7    24 1   
    15     7    25 1   
    16     8     9 1   
    17     8    26 1   
    18     8    27 1   
    19     9    10 1   
    20     9    28 1   
    21     9    29 1   
    22    10    18 1   
    23    10    19 1   
    24    11    12 1   
    25    11    15 1   
    26    12    13 1   
    27    12    30 1   
    28    12    31 1   
    29    13    14 1   
    30    13    32 1   
    31    13    33 1   
    32    15    16 1   
    33    15    34 1   
    34    15    35 1   
    35    16    17 1   
    36    16    36 1   
    37    16    37 1   
@<TRIPOS>SUBSTRUCTURE
     1 CBL         1 TEMP              0 ****  ****    0 ROOT
