@<TRIPOS>MOLECULE
CBM
    7     6     1     0     0
SMALL
bcc


@<TRIPOS>ATOM
      1 C1         -0.0220    0.0000   -0.0810 c         1 CBM      0.901600
      2 C2          1.5030   -0.0010    0.0010 c3        1 CBM     -0.200100
      3 O1         -0.6840   -0.0040    0.9990 o         1 CBM     -0.861300
      4 O2         -0.5600    0.0060   -1.2280 o         1 CBM     -0.861300
      5 H21         1.8410    0.0000    1.0620 hc        1 CBM      0.007033
      6 H22         1.9030   -0.9070   -0.5100 hc        1 CBM      0.007033
      7 H23         1.9060    0.9020   -0.5130 hc        1 CBM      0.007033
@<TRIPOS>BOND
     1    1    2 1   
     2    1    3 1   
     3    1    4 1   
     4    2    5 1   
     5    2    6 1   
     6    2    7 1   
@<TRIPOS>SUBSTRUCTURE
     1 CBM         1 TEMP              0 ****  ****    0 ROOT
