@<TRIPOS>MOLECULE
molecule
    7     6     1     0     0
SMALL
bcc


@<TRIPOS>ATOM
      1 C1           0.0000     0.0000     0.0000 c          1 CBM       0.888600
      2 C2           1.4960     0.0000     0.0000 c3         1 CBM      -0.187100
      3 O1          -0.7030     0.0000     1.0000 o          1 CBM      -0.866800
      4 O2          -0.4780    -0.0040    -1.2690 o          1 CBM      -0.866800
      5 H21          1.8570     0.0050     1.0210 hc         1 CBM       0.010367
      6 H22          1.8570     0.8820    -0.5150 hc         1 CBM       0.010367
      7 H23          1.8570    -0.8870    -0.5060 hc         1 CBM       0.010367
@<TRIPOS>BOND
     1     1     2 1
     2     1     3 1
     3     1     4 1
     4     2     5 1
     5     2     6 1
     6     2     7 1
@<TRIPOS>SUBSTRUCTURE
     1 CBM         1 TEMP              0 ****  ****    0 ROOT
