@<TRIPOS>MOLECULE
CBP
   48    50     1     0     0
SMALL
bcc


@<TRIPOS>ATOM
      1 O1           0.0000     0.0000     0.0000 oh         1 CBP      -0.429100
      2 N2           1.4160     0.0000     0.0000 ns         1 CBP      -0.058400
      3 C3           2.0890     0.0000     1.1670 c          1 CBP       0.540100
      4 O4           1.4850     0.0010     2.2170 o          1 CBP      -0.556100
      5 C5           3.5970    -0.0020     1.1660 c3         1 CBP      -0.094400
      6 C6           4.1070     0.1590     2.5990 c3         1 CBP       0.004800
      7 C7           3.5500    -0.9700     3.4730 c3         1 CBP      -0.066900
      8 C8           4.1370    -2.3030     3.0000 c3         1 CBP       0.201900
      9 O9           5.5560    -2.2810     3.1380 os         1 CBP      -0.387600
     10 C10          6.0660    -1.3320     2.2040 c3         1 CBP       0.201900
     11 C11          5.6380     0.0790     2.6110 c3         1 CBP      -0.066900
     12 S12          3.5720     1.7600     3.2600 sy         1 CBP       0.880300
     13 O13          2.1640     1.9200     3.1690 o          1 CBP      -0.559300
     14 O14          4.2980     2.1130     4.4300 o          1 CBP      -0.559300
     15 C15          4.1740     2.9090     2.0670 ca         1 CBP      -0.166500
     16 C16          3.3820     3.2660     0.9920 ca         1 CBP       0.009500
     17 C17          3.8510     4.1660     0.0560 ca         1 CBP      -0.156000
     18 C18          5.1180     4.7120     0.1940 ca         1 CBP       0.141100
     19 C19          5.9100     4.3520     1.2750 ca         1 CBP      -0.156000
     20 C20          5.4360     3.4550     2.2100 ca         1 CBP       0.009500
     21 O21          5.5810     5.5980    -0.7260 os         1 CBP      -0.198200
     22 C22          6.3050     4.8850    -1.6280 ca         1 CBP       0.132100
     23 C23          6.3430     3.5010    -1.5490 ca         1 CBP      -0.165500
     24 C24          7.0780     2.7780    -2.4680 ca         1 CBP      -0.058000
     25 C25          7.7790     3.4340    -3.4640 ca         1 CBP      -0.069600
     26 C26          7.7440     4.8140    -3.5440 ca         1 CBP      -0.058000
     27 C27          7.0030     5.5400    -2.6320 ca         1 CBP      -0.165500
     28 Cl28         8.7030     2.5230    -4.6180 cl         1 CBP      -0.025400
     29 HO1I        -0.3140    -0.2590    -0.8500 ho         1 CBP       0.391000
     30 HN21         1.9160    -0.0330    -0.8660 hn         1 CBP       0.151500
     31 HC51         3.9560    -0.9380     0.7570 hc         1 CBP       0.042700
     32 HC52         3.9580     0.8200     0.5590 hc         1 CBP       0.042700
     33 HC71         3.8290    -0.7990     4.5050 hc         1 CBP       0.054950
     34 HC72         2.4710    -0.9990     3.3830 hc         1 CBP       0.054950
     35 HC81         3.8810    -2.4590     1.9590 h1         1 CBP       0.009450
     36 HC82         3.7310    -3.1070     3.6010 h1         1 CBP       0.009450
     37 H101         7.1480    -1.3880     2.1900 h1         1 CBP       0.009450
     38 H102         5.6760    -1.5550     1.2180 h1         1 CBP       0.009450
     39 H111         6.0430     0.7970     1.9080 hc         1 CBP       0.054950
     40 H112         6.0030     0.2940     3.6080 hc         1 CBP       0.054950
     41 H161         2.3920     2.8400     0.8850 ha         1 CBP       0.130500
     42 H171         3.2290     4.4450    -0.7860 ha         1 CBP       0.124000
     43 H191         6.9000     4.7780     1.3860 ha         1 CBP       0.124000
     44 H201         6.0550     3.1750     3.0540 ha         1 CBP       0.130500
     45 H231         5.7940     2.9870    -0.7690 ha         1 CBP       0.128500
     46 H241         7.1080     1.6970    -2.4070 ha         1 CBP       0.113500
     47 H261         8.2910     5.3250    -4.3270 ha         1 CBP       0.113500
     48 H271         6.9760     6.6210    -2.6950 ha         1 CBP       0.128500
@<TRIPOS>BOND
     1     1     2 1   
     2     1    29 1   
     3     2     3 1   
     4     2    30 1   
     5     3     4 2   
     6     3     5 1   
     7     5     6 1   
     8     5    31 1   
     9     5    32 1   
    10     6     7 1   
    11     6    11 1   
    12     6    12 1   
    13     7     8 1   
    14     7    33 1   
    15     7    34 1   
    16     8     9 1   
    17     8    35 1   
    18     8    36 1   
    19     9    10 1   
    20    10    11 1   
    21    10    37 1   
    22    10    38 1   
    23    11    39 1   
    24    11    40 1   
    25    12    13 2   
    26    12    14 2   
    27    12    15 1   
    28    15    16 ar  
    29    15    20 ar  
    30    16    17 ar  
    31    16    41 1   
    32    17    18 ar  
    33    17    42 1   
    34    18    19 ar  
    35    18    21 1   
    36    19    20 ar  
    37    19    43 1   
    38    20    44 1   
    39    21    22 1   
    40    22    23 ar  
    41    22    27 ar  
    42    23    24 ar  
    43    23    45 1   
    44    24    25 ar  
    45    24    46 1   
    46    25    26 ar  
    47    25    28 1   
    48    26    27 ar  
    49    26    47 1   
    50    27    48 1   
@<TRIPOS>SUBSTRUCTURE
     1 CBP         1 TEMP              0 ****  ****    0 ROOT
