@<TRIPOS>MOLECULE
molecule
   22    22     1     0     0
SMALL
bcc


@<TRIPOS>ATOM
      1 O1           0.0000     0.0000     0.0000 o          1 CBQ      -0.917833
      2 P1           1.6100     0.0000     0.0000 p5         1 CBQ       1.065200
      3 O2           2.1020     0.0000     1.3950 o          1 CBQ      -0.917833
      4 O3           2.1460     1.3160    -0.7570 o          1 CBQ      -0.917833
      5 C1           2.2180    -1.4870    -0.8600 c3         1 CBQ      -0.072900
      6 N1           3.6830    -1.4870    -0.8600 nu         1 CBQ      -0.630900
      7 C2           4.3780    -2.0880    -1.9020 ca         1 CBQ       0.633200
      8 N2           5.7020    -2.0790    -1.8980 nb         1 CBQ      -0.823000
      9 C3           6.4010    -2.6410    -2.8660 ca         1 CBQ       0.466200
     10 C4           5.7700    -3.2550    -3.9300 ca         1 CBQ      -0.297900
     11 Cl1          6.7020    -3.9850    -5.2000 cl         1 CBQ      -0.291400
     12 C5           4.3810    -3.2810    -3.9740 ca         1 CBQ      -0.108000
     13 C6           3.6770    -2.6870    -2.9430 ca         1 CBQ      -0.210300
     14 P2           1.6110    -2.9750    -0.0020 p5         1 CBQ       1.065200
     15 O4           2.1050    -4.1840    -0.7010 o          1 CBQ      -0.917833
     16 O5           2.1460    -2.9760     1.5160 o          1 CBQ      -0.917833
     17 O6           0.0010    -2.9760    -0.0030 o          1 CBQ      -0.917833
     18 H1           1.8580    -1.4860    -1.8820 h1         1 CBQ       0.042700
     19 HN1          4.1830    -1.0300    -0.1230 hn         1 CBQ       0.455800
     20 H3           7.4840    -2.6150    -2.8300 h4         1 CBQ      -0.051900
     21 H5           3.8620    -3.7560    -4.7980 ha         1 CBQ       0.086000
     22 H6           2.5940    -2.6890    -2.9460 ha         1 CBQ       0.181000
@<TRIPOS>BOND
     1     1     2 1
     2     2     3 1
     3     2     4 1
     4     2     5 1
     5     5     6 1
     6     5    14 1
     7     5    18 1
     8     6     7 1
     9     6    19 1
    10     7     8 ar
    11     7    13 ar
    12     8     9 ar
    13     9    10 ar
    14     9    20 1
    15    10    11 1
    16    10    12 ar
    17    12    13 ar
    18    12    21 1
    19    13    22 1
    20    14    15 1
    21    14    16 1
    22    14    17 1
@<TRIPOS>SUBSTRUCTURE
     1 CBQ         1 TEMP              0 ****  ****    0 ROOT
