@<TRIPOS>MOLECULE
CBT
   35    37     1     0     0
SMALL
bcc


@<TRIPOS>ATOM
      1 Cl3          0.0000     0.0000     0.0000 cl         1 CBT      -0.027900
      2 C29          1.7360     0.0000     0.0000 ca         1 CBT      -0.028600
      3 C28          2.4290     0.0000     1.1970 ca         1 CBT      -0.101500
      4 C26          3.8110    -0.0010     1.1960 ca         1 CBT      -0.075750
      5 C27          2.4280    -0.0070    -1.1980 ca         1 CBT      -0.101500
      6 C25          3.8110    -0.0030    -1.1980 ca         1 CBT      -0.075750
      7 C22          4.5010    -0.0020    -0.0000 ca         1 CBT      -0.128300
      8 C17          6.0080    -0.0020    -0.0010 c3         1 CBT       0.231100
      9 N13          6.4960    -1.3820    -0.0010 nh         1 CBT      -0.430300
     10 C16          6.7280    -2.0400     1.2100 cc         1 CBT       0.699900
     11 N18          7.1650    -3.2740     1.3530 nd         1 CBT      -0.785800
     12 N20          7.2430    -3.4950     2.7380 na         1 CBT       0.587900
     13 N21          6.8600    -2.4100     3.3170 nd         1 CBT      -0.273800
     14 N19          6.5560    -1.5300     2.4290 nc         1 CBT      -0.443000
     15 C1           6.7400    -2.0740    -1.2680 c3         1 CBT       0.231100
     16 C2           8.1630    -1.8370    -1.7040 ca         1 CBT      -0.128300
     17 C3           9.1610    -2.7060    -1.3040 ca         1 CBT      -0.075750
     18 C5          10.4670    -2.4900    -1.7030 ca         1 CBT      -0.101500
     19 C7          10.7740    -1.4050    -2.5020 ca         1 CBT      -0.028600
     20 Cl8         12.4140    -1.1320    -3.0040 cl         1 CBT      -0.027900
     21 C6           9.7750    -0.5350    -2.9020 ca         1 CBT      -0.101500
     22 C4           8.4690    -0.7550    -2.5070 ca         1 CBT      -0.075750
     23 H28          1.8880     0.0010     2.1350 ha         1 CBT       0.115500
     24 H26          4.3520    -0.0000     2.1340 ha         1 CBT       0.116500
     25 H27          1.8870    -0.0080    -2.1370 ha         1 CBT       0.115500
     26 H25          4.3520    -0.0060    -2.1360 ha         1 CBT       0.116500
     27 H171         6.3700     0.5090     0.8820 h1         1 CBT       0.037200
     28 H172         6.3690     0.5070    -0.8870 h1         1 CBT       0.037200
     29 H20          7.5390    -4.3380     3.1900 hn         1 CBT       0.184700
     30 H11          6.5740    -3.1360    -1.1370 h1         1 CBT       0.037200
     31 H12          6.0630    -1.6930    -2.0230 h1         1 CBT       0.037200
     32 H3           8.9210    -3.5570    -0.6780 ha         1 CBT       0.116500
     33 H5          11.2490    -3.1710    -1.3900 ha         1 CBT       0.115500
     34 H6          10.0150     0.3140    -3.5300 ha         1 CBT       0.115500
     35 H4           7.6870    -0.0750    -2.8200 ha         1 CBT       0.116500
@<TRIPOS>BOND
     1     1     2 1   
     2     2     3 ar  
     3     2     5 ar  
     4     3     4 ar  
     5     3    23 1   
     6     4     7 ar  
     7     4    24 1   
     8     5     6 ar  
     9     5    25 1   
    10     6     7 ar  
    11     6    26 1   
    12     7     8 1   
    13     8     9 1   
    14     8    27 1   
    15     8    28 1   
    16     9    10 1   
    17     9    15 1   
    18    10    11 2   
    19    10    14 1   
    20    11    12 1   
    21    12    13 1   
    22    12    29 1   
    23    13    14 2   
    24    15    16 1   
    25    15    30 1   
    26    15    31 1   
    27    16    17 ar  
    28    16    22 ar  
    29    17    18 ar  
    30    17    32 1   
    31    18    19 ar  
    32    18    33 1   
    33    19    20 1   
    34    19    21 ar  
    35    21    22 ar  
    36    21    34 1   
    37    22    35 1   
@<TRIPOS>SUBSTRUCTURE
     1 CBT         1 TEMP              0 ****  ****    0 ROOT
