@<TRIPOS>MOLECULE
molecule
   24    24     1     0     0
SMALL
bcc


@<TRIPOS>ATOM
      1 C1           0.0000     0.0000     0.0000 c3         1 CBU       0.129933
      2 C2           1.5290     0.0000     0.0000 c3         1 CBU       0.129933
      3 C3           2.0390     0.0000     1.4420 c3         1 CBU       0.129933
      4 C4           1.5300     1.2490     2.1640 c3         1 CBU       0.129933
      5 C5          -0.0010     1.2490     2.1640 c3         1 CBU       0.129933
      6 C6          -0.5110     1.2490     0.7210 c3         1 CBU       0.129933
      7 O1          -0.4760    -0.0000    -1.3480 oh         1 CBU      -0.595967
      8 O2           2.0060    -1.1670    -0.6740 oh         1 CBU      -0.595967
      9 O3           3.4690    -0.0010     1.4430 oh         1 CBU      -0.595967
     10 O4           2.0060     2.4150     1.4900 oh         1 CBU      -0.595967
     11 O6          -1.9390     1.2500     0.7210 oh         1 CBU      -0.595967
     12 OXT         -0.4770     0.0820     2.8370 oh         1 CBU      -0.595967
     13 H1          -0.3590    -0.8830     0.5140 h1         1 CBU       0.059033
     14 H2           1.8880     0.8870    -0.5080 h1         1 CBU       0.059033
     15 H6          -0.1450     2.1320     0.2120 h1         1 CBU       0.059033
     16 HA          -0.9820    -0.7810    -1.5020 ho         1 CBU       0.406833
     17 H3           1.6740    -0.8830     1.9520 h1         1 CBU       0.059033
     18 HB           2.5120    -0.9110    -1.4270 ho         1 CBU       0.406833
     19 H4           1.8880     1.2450     3.1860 h1         1 CBU       0.059033
     20 HC           3.7830    -0.6960     1.9970 ho         1 CBU       0.406833
     21 H5          -0.3600     2.1360     2.6710 h1         1 CBU       0.059033
     22 HD           2.2420     3.0710     2.1260 ho         1 CBU       0.406833
     23 HOT         -0.7140     0.3040     3.7220 ho         1 CBU       0.406833
     24 HE          -2.2530     2.0770     0.3950 ho         1 CBU       0.406833
@<TRIPOS>BOND
     1     1     2 1
     2     1     6 1
     3     1     7 1
     4     2     3 1
     5     2     8 1
     6     3     4 1
     7     3     9 1
     8     4     5 1
     9     4    10 1
    10     5     6 1
    11     5    12 1
    12     6    11 1
    13     1    13 1
    14     2    14 1
    15     6    15 1
    16     7    16 1
    17     3    17 1
    18     8    18 1
    19     4    19 1
    20     9    20 1
    21     5    21 1
    22    10    22 1
    23    12    23 1
    24    11    24 1
@<TRIPOS>SUBSTRUCTURE
     1 CBU         1 TEMP              0 ****  ****    0 ROOT
