@<TRIPOS>MOLECULE
CBU
   24    24     1     0     0
SMALL
bcc


@<TRIPOS>ATOM
      1 C1          0.0910   -0.0050    0.0860 c3        1 CBU      0.114767
      2 C2          1.6240    0.0590    0.1150 c3        1 CBU      0.114767
      3 C3          2.1010    0.0800    1.5760 c3        1 CBU      0.114767
      4 C4          1.5090    1.2750    2.3410 c3        1 CBU      0.114767
      5 C5         -0.0260    1.3180    2.2350 c3        1 CBU      0.114767
      6 C6         -0.4790    1.2460    0.7690 c3        1 CBU      0.114767
      7 O1         -0.2930   -0.0480   -1.2800 oh        1 CBU     -0.608467
      8 O2          2.1970   -1.0920   -0.4810 oh        1 CBU     -0.608467
      9 O3          3.5100    0.2350    1.6310 oh        1 CBU     -0.608467
     10 O4          1.9790    2.5110    1.8270 oh        1 CBU     -0.608467
     11 O6         -1.8980    1.1790    0.7790 oh        1 CBU     -0.608467
     12 OXT        -0.5160    0.2230    2.9910 oh        1 CBU     -0.608467
     13 H1         -0.2690   -0.9270    0.6230 h1        1 CBU      0.071367
     14 H2          1.9810    0.9810   -0.4220 h1        1 CBU      0.071367
     15 H6         -0.1260    2.1700    0.2330 h1        1 CBU      0.071367
     16 HA         -1.2150   -0.3320   -1.2970 ho        1 CBU      0.422000
     17 H3          1.7990   -0.8770    2.0870 h1        1 CBU      0.071367
     18 HB          1.8180   -1.1620   -1.3670 ho        1 CBU      0.422000
     19 H4          1.8000    1.1820    3.4250 h1        1 CBU      0.071367
     20 HC          3.8870   -0.4590    1.0740 ho        1 CBU      0.422000
     21 H5         -0.3990    2.2840    2.6790 h1        1 CBU      0.071367
     22 HD          2.9440    2.4450    1.7960 ho        1 CBU      0.422000
     23 HOT        -1.4760    0.2230    2.8780 ho        1 CBU      0.422000
     24 HE         -2.1950    1.4580   -0.0950 ho        1 CBU      0.422000
@<TRIPOS>BOND
     1    1    2 1   
     2    1    6 1   
     3    1    7 1   
     4    1   13 1   
     5    2    3 1   
     6    2    8 1   
     7    2   14 1   
     8    3    4 1   
     9    3    9 1   
    10    3   17 1   
    11    4    5 1   
    12    4   10 1   
    13    4   19 1   
    14    5    6 1   
    15    5   12 1   
    16    5   21 1   
    17    6   11 1   
    18    6   15 1   
    19    7   16 1   
    20    8   18 1   
    21    9   20 1   
    22   10   22 1   
    23   11   24 1   
    24   12   23 1   
@<TRIPOS>SUBSTRUCTURE
     1 CBU         1 TEMP              0 ****  ****    0 ROOT
