@<TRIPOS>MOLECULE
CBZ
   18    18     1     0     0
SMALL
bcc


@<TRIPOS>ATOM
      1 C          -0.1150    0.1890    0.7900 c         1 CBZ      0.620900
      2 O1          0.8810    0.8320    0.4730 o         1 CBZ     -0.488000
      3 O2         -1.2950    0.8380    0.5180 os        1 CBZ     -0.427900
      4 C1'        -2.4920    0.1320    0.8540 c3        1 CBZ      0.175700
      5 C1         -2.7060    0.0150    2.3260 ca        1 CBZ     -0.143300
      6 C2         -2.3670    1.0710    3.1790 ca        1 CBZ     -0.114000
      7 C3         -2.6070    0.9680    4.5480 ca        1 CBZ     -0.129500
      8 C4         -3.1930   -0.1850    5.0710 ca        1 CBZ     -0.119000
      9 C5         -3.5370   -1.2380    4.2220 ca        1 CBZ     -0.129500
     10 C6         -3.2940   -1.1400    2.8530 ca        1 CBZ     -0.114000
     11 H          -0.1600   -0.8140    1.2510 h5        1 CBZ      0.045200
     12 H1'1       -3.2980    0.7680    0.3910 h1        1 CBZ      0.066200
     13 H1'2       -2.4820   -0.8790    0.3650 h1        1 CBZ      0.066200
     14 H2         -1.9060    1.9790    2.7590 ha        1 CBZ      0.140500
     15 H3         -2.3350    1.7990    5.2160 ha        1 CBZ      0.136500
     16 H4         -3.3840   -0.2650    6.1510 ha        1 CBZ      0.135000
     17 H5         -4.0000   -2.1470    4.6320 ha        1 CBZ      0.136500
     18 H6         -3.5670   -1.9720    2.1870 ha        1 CBZ      0.140500
@<TRIPOS>BOND
     1    1    2 2   
     2    1    3 1   
     3    1   11 1   
     4    3    4 1   
     5    4    5 1   
     6    4   12 1   
     7    4   13 1   
     8    5    6 ar  
     9    5   10 ar  
    10    6    7 ar  
    11    6   14 1   
    12    7    8 ar  
    13    7   15 1   
    14    8    9 ar  
    15    8   16 1   
    16    9   10 ar  
    17    9   17 1   
    18   10   18 1   
@<TRIPOS>SUBSTRUCTURE
     1 CBZ         1 TEMP              0 ****  ****    0 ROOT
