@<TRIPOS>MOLECULE
CC1
   83    86     1     0     0
SMALL
bcc


@<TRIPOS>ATOM
      1 C1           0.0000     0.0000     0.0000 c3         1 CC1       0.098000
      2 N1          -0.4920     0.7710     1.1450 ns         1 CC1      -0.222900
      3 C2          -1.7580     1.2360     1.1490 c          1 CC1       0.553100
      4 CO          -2.2630     2.0280     2.3260 c3         1 CC1      -0.032300
      5 N2          -3.2790     2.9810     1.8710 ns         1 CC1      -0.163900
      6 C12         -4.4010     2.5360     1.2710 c          1 CC1       0.564100
      7 C13         -5.4460     3.5170     0.8040 c3         1 CC1      -0.071100
      8 O4          -4.5690     1.3460     1.1070 o          1 CC1      -0.602100
      9 C4          -2.8800     1.0790     3.3540 c3         1 CC1       0.011900
     10 C5          -3.3870     1.8720     4.5310 ca         1 CC1      -0.155300
     11 C6          -2.5560     2.1190     5.6070 ca         1 CC1      -0.069000
     12 C8          -3.0200     2.8500     6.6830 ca         1 CC1      -0.028500
     13 P2          -1.9270     3.1800     8.0940 p5         1 CC1       0.581000
     14 OR1         -2.2020     2.0950     9.2510 o          1 CC1      -0.488500
     15 OR2         -2.1940     4.5380     8.6180 o          1 CC1      -0.488500
     16 OR3         -0.3930     3.0810     7.6180 o          1 CC1      -0.488500
     17 C10         -4.3160     3.3280     6.6880 ca         1 CC1      -0.025500
     18 P1          -4.9260     4.2830     8.1040 p5         1 CC1       0.578000
     19 OR4         -4.4760     5.8220     7.9470 o          1 CC1      -0.497500
     20 OR5         -6.5330     4.1980     8.1590 o          1 CC1      -0.497500
     21 OR6         -4.3590     3.7300     9.3540 o          1 CC1      -0.497500
     22 C9          -5.1490     3.0770     5.6140 ca         1 CC1      -0.082000
     23 C7          -4.6850     2.3480     4.5360 ca         1 CC1      -0.162000
     24 O3          -2.4870     1.0150     0.2070 o          1 CC1      -0.621100
     25 C11          1.5300     0.0000     0.0000 c3         1 CC1      -0.033400
     26 C30          2.0730     0.0000     1.4150 c3         1 CC1      -0.032400
     27 C28          1.8180    -1.2820     2.1830 c3         1 CC1      -0.033400
     28 C31          0.3260    -1.4560     2.4790 c3         1 CC1       0.034900
     29 C19         -0.3240    -2.1250     1.2860 ca         1 CC1      -0.253300
     30 C18         -0.7590    -3.4330     1.3960 ca         1 CC1      -0.201000
     31 C17         -1.3560    -4.0560     0.3110 ca         1 CC1       0.088100
     32 O5          -1.7830    -5.3390     0.4120 os         1 CC1      -0.214900
     33 C20         -1.4860    -5.7690     1.7400 c3         1 CC1       0.147400
     34 C21         -1.9470    -7.2170     1.9220 c3         1 CC1      -0.053700
     35 C22         -1.6260    -7.6790     3.3460 c3         1 CC1      -0.028400
     36 C23         -2.0870    -9.1260     3.5280 c3         1 CC1      -0.023900
     37 C24         -3.5950    -9.2150     3.2900 c3         1 CC1      -0.026400
     38 C25         -3.9160    -8.7540     1.8670 c3         1 CC1      -0.023900
     39 C26         -3.4550    -7.3060     1.6850 c3         1 CC1      -0.028400
     40 C16         -1.5140    -3.3540    -0.8920 ca         1 CC1      -0.075600
     41 C15         -1.0700    -2.0330    -0.9850 ca         1 CC1      -0.287000
     42 C14         -0.4840    -1.4330     0.1060 ca         1 CC1      -0.036300
     43 C27         -2.1470    -4.0070    -2.0540 c          1 CC1      -0.073300
     44 N3          -2.2980    -3.3290    -3.2080 nz         1 CC1       0.323600
     45 O6          -2.5340    -5.1570    -1.9690 o          1 CC1      -0.883100
     46 HC11        -0.3620     0.4370    -0.9230 h1         1 CC1       0.028700
     47 HN11         0.1330     1.0190     1.8860 hn         1 CC1       0.198500
     48 HCO1        -1.4400     2.5670     2.7790 h1         1 CC1       0.033700
     49 HN21        -3.1210     3.9650     1.9680 hn         1 CC1       0.159500
     50 H131        -6.4250     3.0560     0.8610 hc         1 CC1       0.009033
     51 H132        -5.2400     3.8010    -0.2210 hc         1 CC1       0.009033
     52 H133        -5.4230     4.3970     1.4340 hc         1 CC1       0.009033
     53 HC41        -3.7030     0.5400     2.9000 hc         1 CC1       0.044200
     54 HC42        -2.1290     0.3740     3.6900 hc         1 CC1       0.044200
     55 HC61        -1.5580     1.7000     5.6270 ha         1 CC1       0.109000
     56 HC91        -6.1660     3.4510     5.6180 ha         1 CC1       0.102000
     57 HC71        -5.3370     2.1510     3.6930 ha         1 CC1       0.082000
     58 H111         1.8850     0.8850    -0.5150 hc         1 CC1       0.005700
     59 H112         1.8850    -0.8840    -0.5160 hc         1 CC1       0.005700
     60 H301         1.6160     0.8190     1.9570 hc         1 CC1      -0.000800
     61 H302         3.1430     0.1650     1.3710 hc         1 CC1      -0.000800
     62 H281         2.1480    -2.1170     1.5770 hc         1 CC1       0.007700
     63 H282         2.3520    -1.2300     3.1250 hc         1 CC1       0.007700
     64 H311        -0.1210    -0.4800     2.6230 hc         1 CC1       0.017700
     65 H312         0.2110    -2.0940     3.3470 hc         1 CC1       0.017700
     66 H181        -0.5780    -3.9880     2.3080 ha         1 CC1       0.099000
     67 H201        -0.4180    -5.7060     1.9100 h1         1 CC1       0.006200
     68 H202        -2.0020    -5.1340     2.4500 h1         1 CC1       0.006200
     69 H211        -1.4340    -7.8560     1.2140 hc         1 CC1       0.026700
     70 H221        -2.1440    -7.0450     4.0550 hc         1 CC1       0.027450
     71 H222        -0.5570    -7.6190     3.5110 hc         1 CC1       0.027450
     72 H231        -1.8630    -9.4510     4.5370 hc         1 CC1       0.000200
     73 H232        -1.5730    -9.7600     2.8170 hc         1 CC1       0.000200
     74 H241        -3.9190   -10.2410     3.4170 hc         1 CC1       0.000200
     75 H242        -4.1090    -8.5780     3.9990 hc         1 CC1       0.000200
     76 H251        -3.3980    -9.3880     1.1580 hc         1 CC1       0.000200
     77 H252        -4.9850    -8.8150     1.7020 hc         1 CC1       0.000200
     78 H261        -3.9690    -6.6720     2.3980 hc         1 CC1       0.027450
     79 H262        -3.6800    -6.9810     0.6770 hc         1 CC1       0.027450
     80 H151        -1.1870    -1.4830    -1.9110 ha         1 CC1       0.068000
     81 HN31        -2.8910    -2.5370    -3.0550 hn         1 CC1       0.104467
     82 HN32        -2.7110    -3.9280    -3.8950 hn         1 CC1       0.104467
     83 H33         -1.4030    -3.0180    -3.5320 hn         1 CC1       0.104467
@<TRIPOS>BOND
     1     1     2 1   
     2     1    25 1   
     3     1    42 1   
     4     1    46 1   
     5     2     3 1   
     6     2    47 1   
     7     3     4 1   
     8     3    24 2   
     9     4     5 1   
    10     4     9 1   
    11     4    48 1   
    12     5     6 1   
    13     5    49 1   
    14     6     7 1   
    15     6     8 2   
    16     7    50 1   
    17     7    51 1   
    18     7    52 1   
    19     9    10 1   
    20     9    53 1   
    21     9    54 1   
    22    10    11 ar  
    23    10    23 ar  
    24    11    12 ar  
    25    11    55 1   
    26    12    13 1   
    27    12    17 ar  
    28    13    14 1   
    29    13    15 1   
    30    13    16 1   
    31    17    18 1   
    32    17    22 ar  
    33    18    19 1   
    34    18    20 1   
    35    18    21 1   
    36    22    23 ar  
    37    22    56 1   
    38    23    57 1   
    39    25    26 1   
    40    25    58 1   
    41    25    59 1   
    42    26    27 1   
    43    26    60 1   
    44    26    61 1   
    45    27    28 1   
    46    27    62 1   
    47    27    63 1   
    48    28    29 1   
    49    28    64 1   
    50    28    65 1   
    51    29    30 ar  
    52    29    42 ar  
    53    30    31 ar  
    54    30    66 1   
    55    31    32 1   
    56    31    40 ar  
    57    32    33 1   
    58    33    34 1   
    59    33    67 1   
    60    33    68 1   
    61    34    35 1   
    62    34    39 1   
    63    34    69 1   
    64    35    36 1   
    65    35    70 1   
    66    35    71 1   
    67    36    37 1   
    68    36    72 1   
    69    36    73 1   
    70    37    38 1   
    71    37    74 1   
    72    37    75 1   
    73    38    39 1   
    74    38    76 1   
    75    38    77 1   
    76    39    78 1   
    77    39    79 1   
    78    40    41 ar  
    79    40    43 1   
    80    41    42 ar  
    81    41    80 1   
    82    43    44 1   
    83    43    45 2   
    84    44    81 1   
    85    44    82 1   
    86    44    83 1   
@<TRIPOS>SUBSTRUCTURE
     1 CC1         1 TEMP              0 ****  ****    0 ROOT
