@<TRIPOS>MOLECULE
CC2
   43    46     1     0     0
SMALL
bcc


@<TRIPOS>ATOM
      1 C1         -0.0940    0.1400   -0.0170 ca        1 CC2     -0.022300
      2 O1          1.6210   -0.0670    4.8600 oh        1 CC2     -0.472100
      3 C2          1.2940    0.0990   -0.0430 ca        1 CC2     -0.149000
      4 O2          3.3780    0.0080    1.0460 os        1 CC2     -0.328200
      5 C3          2.0110    0.0380    1.1670 ca        1 CC2      0.170100
      6 C4          1.3470    0.0150    2.4090 ca        1 CC2     -0.187800
      7 C5         -0.0580    0.0580    2.4090 ca        1 CC2     -0.083000
      8 C6         -0.7770    0.1190    1.2220 ca        1 CC2     -0.100300
      9 O7          5.3570   -0.0200    1.9040 o         1 CC2     -0.560500
     10 C8          4.1640   -0.0510    2.2030 c         1 CC2      0.734800
     11 C9          3.5330   -0.1180    3.5110 cc        1 CC2     -0.252400
     12 C10         2.1680   -0.0590    3.6040 cd        1 CC2      0.225900
     13 C11        -0.8590    0.2040   -1.2840 c3        1 CC2     -0.062800
     14 C12        -2.2580    0.1630    1.2480 c3        1 CC2     -0.052800
     15 C13         4.4250   -0.1870    4.6980 c3        1 CC2      0.025100
     16 C14         4.7700   -1.5650    5.1570 ca        1 CC2     -0.051300
     17 C15         5.5430   -1.7110    6.3540 ca        1 CC2     -0.031000
     18 C16         5.8740   -3.0150    6.8070 ca        1 CC2     -0.034000
     19 C17         5.4420   -4.1480    6.0650 ca        1 CC2     -0.124000
     20 C18         4.7110   -3.9840    4.9160 ca        1 CC2     -0.122000
     21 C19         4.3750   -2.6870    4.4630 ca        1 CC2     -0.123000
     22 C20         5.9990   -0.5950    7.1090 ca        1 CC2     -0.119000
     23 C21         6.7360   -0.7710    8.2550 ca        1 CC2     -0.129000
     24 C22         7.0590   -2.0730    8.7060 ca        1 CC2     -0.129000
     25 C23         6.6370   -3.1700    7.9970 ca        1 CC2     -0.118000
     26 HO1         0.6570   -0.0310    4.7870 ho        1 CC2      0.430000
     27 H2          1.8520    0.1140   -0.9920 ha        1 CC2      0.164000
     28 H5         -0.6130    0.0410    3.3600 ha        1 CC2      0.129000
     29 H11        -1.5410   -0.6800   -1.3680 hc        1 CC2      0.054033
     30 H11A       -0.1800    0.2140   -2.1720 hc        1 CC2      0.054033
     31 H11B       -1.4870    1.1310   -1.3070 hc        1 CC2      0.054033
     32 H12        -2.6510    0.1390    2.2940 hc        1 CC2      0.048033
     33 H12A       -2.6810   -0.7120    0.6920 hc        1 CC2      0.048033
     34 H12B       -2.6260    1.0980    0.7540 hc        1 CC2      0.048033
     35 H13         3.9230    0.3570    5.5480 hc        1 CC2      0.074700
     36 H13A        5.3840    0.3550    4.4570 hc        1 CC2      0.074700
     37 H17         5.7080   -5.1510    6.4290 ha        1 CC2      0.131000
     38 H18         4.3780   -4.8540    4.3320 ha        1 CC2      0.131000
     39 H19         3.7910   -2.5910    3.5340 ha        1 CC2      0.132000
     40 H20         5.7590    0.4220    6.7630 ha        1 CC2      0.132000
     41 H21         7.0870    0.0970    8.8330 ha        1 CC2      0.131000
     42 H22         7.6500   -2.1900    9.6260 ha        1 CC2      0.131000
     43 H23         6.8830   -4.1880    8.3340 ha        1 CC2      0.131000
@<TRIPOS>BOND
     1    1    3 ar  
     2    1    8 ar  
     3    1   13 1   
     4    2   12 1   
     5    2   26 1   
     6    3    5 ar  
     7    3   27 1   
     8    4    5 1   
     9    4   10 1   
    10    5    6 ar  
    11    6    7 ar  
    12    6   12 1   
    13    7    8 ar  
    14    7   28 1   
    15    8   14 1   
    16    9   10 2   
    17   10   11 1   
    18   11   12 2   
    19   11   15 1   
    20   13   29 1   
    21   13   30 1   
    22   13   31 1   
    23   14   32 1   
    24   14   33 1   
    25   14   34 1   
    26   15   16 1   
    27   15   35 1   
    28   15   36 1   
    29   16   17 ar  
    30   16   21 ar  
    31   17   18 ar  
    32   17   22 ar  
    33   18   19 ar  
    34   18   25 ar  
    35   19   20 ar  
    36   19   37 1   
    37   20   21 ar  
    38   20   38 1   
    39   21   39 1   
    40   22   23 ar  
    41   22   40 1   
    42   23   24 ar  
    43   23   41 1   
    44   24   25 ar  
    45   24   42 1   
    46   25   43 1   
@<TRIPOS>SUBSTRUCTURE
     1 CC2         1 TEMP              0 ****  ****    0 ROOT
