@<TRIPOS>MOLECULE
molecule
   43    46     1     0     0
SMALL
bcc


@<TRIPOS>ATOM
      1 C1           0.0000     0.0000     0.0000 ca         1 CC2      -0.031300
      2 O1           1.4580     0.0020     4.8680 oh         1 CC2      -0.502100
      3 C2           1.3790     0.0000     0.0000 ca         1 CC2      -0.145000
      4 O2           3.4230    -0.0010     1.2220 os         1 CC2      -0.306200
      5 C3           2.0720     0.0000     1.2040 ca         1 CC2       0.170100
      6 C4           1.3570     0.0010     2.4120 ca         1 CC2      -0.184800
      7 C5          -0.0390     0.0020     2.3980 ca         1 CC2      -0.065000
      8 C6          -0.7080     0.0010     1.1930 ca         1 CC2      -0.111300
      9 O7           5.3300    -0.0020     2.3350 o          1 CC2      -0.568500
     10 C8           4.1120    -0.0020     2.3740 c          1 CC2       0.746800
     11 C9           3.4700     0.0000     3.6210 cc         1 CC2      -0.252400
     12 C10          2.1030     0.0000     3.6800 cd         1 CC2       0.200900
     13 C11         -0.7460     0.0070    -1.3090 c3         1 CC2      -0.050800
     14 C12         -2.2150     0.0020     1.1720 c3         1 CC2      -0.043800
     15 C13          4.2820    -0.0010     4.8900 c3         1 CC2       0.034100
     16 C14          4.6430    -1.4180     5.2540 ca         1 CC2      -0.057300
     17 C15          5.4980    -1.6710     6.3400 ca         1 CC2      -0.028000
     18 C16          5.8270    -3.0110     6.6680 ca         1 CC2      -0.031000
     19 C17          5.2920    -4.0590     5.9000 ca         1 CC2      -0.121000
     20 C18          4.4660    -3.7750     4.8560 ca         1 CC2      -0.119000
     21 C19          4.1400    -2.4580     4.5370 ca         1 CC2      -0.117000
     22 C20          6.0350    -0.6230     7.1080 ca         1 CC2      -0.118000
     23 C21          6.8590    -0.9070     8.1530 ca         1 CC2      -0.126000
     24 C22          7.1820    -2.2240     8.4750 ca         1 CC2      -0.128000
     25 C23          6.6820    -3.2650     7.7530 ca         1 CC2      -0.114000
     26 HO1          1.1710     0.8780     5.0690 ho         1 CC2       0.433000
     27 H2           1.9210    -0.0010    -0.9380 ha         1 CC2       0.156000
     28 H5          -0.5940     0.0020     3.3280 ha         1 CC2       0.146000
     29 H11         -1.3670    -0.8790    -1.3750 hc         1 CC2       0.050367
     30 H11A        -0.0380     0.0130    -2.1280 hc         1 CC2       0.050367
     31 H11B        -1.3710     0.8900    -1.3640 hc         1 CC2       0.050367
     32 H12         -2.5680     0.8960     0.6730 hc         1 CC2       0.046033
     33 H12A        -2.5900    -0.0170     2.1880 hc         1 CC2       0.046033
     34 H12B        -2.5690    -0.8730     0.6400 hc         1 CC2       0.046033
     35 H13          5.1860     0.5760     4.7410 hc         1 CC2       0.069700
     36 H13A         3.7000     0.4400     5.6910 hc         1 CC2       0.069700
     37 H17          5.5370    -5.0870     6.1370 ha         1 CC2       0.131000
     38 H18          4.0520    -4.5850     4.2680 ha         1 CC2       0.128000
     39 H19          3.4800    -2.2600     3.7000 ha         1 CC2       0.130000
     40 H20          5.7920     0.4050     6.8700 ha         1 CC2       0.130000
     41 H21          7.2700    -0.0970     8.7430 ha         1 CC2       0.126000
     42 H22          7.8410    -2.4230     9.3110 ha         1 CC2       0.127000
     43 H23          6.9420    -4.2830     8.0150 ha         1 CC2       0.131000
@<TRIPOS>BOND
     1     1     3 ar
     2     1     8 ar
     3     1    13 1
     4     2    12 1
     5     3     5 ar
     6     4     5 1
     7     4    10 1
     8     5     6 ar
     9     6     7 ar
    10     6    12 1
    11     7     8 ar
    12     8    14 1
    13     9    10 2
    14    10    11 1
    15    11    12 2
    16    11    15 1
    17    15    16 1
    18    16    17 ar
    19    16    21 ar
    20    17    18 ar
    21    17    22 ar
    22    18    19 ar
    23    18    25 ar
    24    19    20 ar
    25    20    21 ar
    26    22    23 ar
    27    23    24 ar
    28    24    25 ar
    29     2    26 1
    30     3    27 1
    31     7    28 1
    32    13    29 1
    33    13    30 1
    34    13    31 1
    35    14    32 1
    36    14    33 1
    37    14    34 1
    38    15    35 1
    39    15    36 1
    40    19    37 1
    41    20    38 1
    42    21    39 1
    43    22    40 1
    44    23    41 1
    45    24    42 1
    46    25    43 1
@<TRIPOS>SUBSTRUCTURE
     1 CC2         1 TEMP              0 ****  ****    0 ROOT
