@<TRIPOS>MOLECULE
CC3
   48    51     1     0     0
SMALL
bcc


@<TRIPOS>ATOM
      1 O27          0.0000     0.0000     0.0000 o          1 CC3      -0.598100
      2 C26          1.2270     0.0000     0.0000 c          1 CC3       0.628100
      3 C28          2.0000     0.0000     1.2960 cx         1 CC3      -0.228700
      4 C30          2.4500    -1.3070     1.8330 cx         1 CC3      -0.060400
      5 C29          1.3350    -0.5560     2.4990 cx         1 CC3      -0.060400
      6 N25          2.0790    -0.0040    -1.1120 ns         1 CC3      -0.042100
      7 C21          1.7310    -0.0040    -2.4640 ca         1 CC3      -0.043400
      8 C20          0.3870    -0.0000    -2.8380 ca         1 CC3      -0.177000
      9 C22          2.7270    -0.0090    -3.4400 ca         1 CC3      -0.174000
     10 C23          2.3800    -0.0090    -4.7920 ca         1 CC3      -0.043000
     11 C24          1.0360    -0.0050    -5.1660 ca         1 CC3      -0.170000
     12 C19          0.0370    -0.0000    -4.1900 ca         1 CC3       0.046600
     13 N18         -1.3180     0.0040    -4.5680 nu         1 CC3      -0.299300
     14 C16         -2.4820    -0.5110    -3.9580 ca         1 CC3       0.736900
     15 N15         -3.6420    -0.3230    -4.6170 nb         1 CC3      -0.709000
     16 C14         -4.7330    -0.8270    -4.0060 ca         1 CC3       0.516200
     17 C13         -4.6960    -1.4920    -2.7970 ca         1 CC3      -0.445600
     18 N17         -2.3150    -1.1400    -2.7780 nb         1 CC3      -0.708000
     19 C12         -3.4460    -1.6240    -2.2170 ca         1 CC3       0.566200
     20 N11         -3.3660    -2.2970    -0.9820 nu         1 CC3      -0.319300
     21 C1          -2.3540    -3.0730    -0.3810 ca         1 CC3       0.038600
     22 C6          -1.1480    -3.2860    -1.0500 ca         1 CC3      -0.073000
     23 C5          -0.1480    -4.0540    -0.4570 ca         1 CC3      -0.178300
     24 C7           1.1410    -4.2840    -1.1730 c3         1 CC3       0.635200
     25 F10          2.0270    -5.0550    -0.4730 f          1 CC3      -0.213300
     26 F9           0.9930    -4.9160    -2.3750 f          1 CC3      -0.213300
     27 F8           1.8040    -3.1230    -1.4480 f          1 CC3      -0.213300
     28 C4          -0.3510    -4.6090     0.8070 ca         1 CC3      -0.089000
     29 C3          -1.5560    -4.3960     1.4760 ca         1 CC3      -0.072000
     30 C2          -2.5560    -3.6270     0.8830 ca         1 CC3      -0.125000
     31 H28          2.6740     0.8240     1.4950 hc         1 CC3       0.070700
     32 H301         2.1520    -2.1770     1.2590 hc         1 CC3       0.052700
     33 H302         3.3990    -1.2970     2.3550 hc         1 CC3       0.052700
     34 H291         1.5880    -0.0770     3.4370 hc         1 CC3       0.052700
     35 H292         0.3410    -0.9570     2.3410 hc         1 CC3       0.052700
     36 HN25         3.0600    -0.0070    -0.9130 hn         1 CC3       0.166500
     37 H20         -0.3860     0.0040    -2.0790 ha         1 CC3       0.177000
     38 H22          3.7700    -0.0120    -3.1490 ha         1 CC3       0.108000
     39 H23          3.1530    -0.0130    -5.5500 ha         1 CC3       0.102000
     40 H24          0.7660    -0.0060    -6.2150 ha         1 CC3       0.110000
     41 HN18        -1.4910     0.4620    -5.4410 hn         1 CC3       0.276800
     42 H14         -5.6930    -0.7040    -4.4920 h4         1 CC3      -0.027900
     43 H13         -5.5910    -1.8870    -2.3310 ha         1 CC3       0.138000
     44 HN11        -4.1900    -2.2060    -0.4200 hn         1 CC3       0.269800
     45 H6          -1.0150    -2.9070    -2.0570 ha         1 CC3       0.150000
     46 H4           0.4270    -5.2070     1.2680 ha         1 CC3       0.119000
     47 H3          -1.7140    -4.8260     2.4580 ha         1 CC3       0.108000
     48 H2          -3.4920    -3.4610     1.4030 ha         1 CC3       0.109000
@<TRIPOS>BOND
     1     1     2 2   
     2     2     3 1   
     3     2     6 1   
     4     3     4 1   
     5     3     5 1   
     6     3    31 1   
     7     4     5 1   
     8     4    32 1   
     9     4    33 1   
    10     5    34 1   
    11     5    35 1   
    12     6     7 1   
    13     6    36 1   
    14     7     8 ar  
    15     7     9 ar  
    16     8    12 ar  
    17     8    37 1   
    18     9    10 ar  
    19     9    38 1   
    20    10    11 ar  
    21    10    39 1   
    22    11    12 ar  
    23    11    40 1   
    24    12    13 1   
    25    13    14 1   
    26    13    41 1   
    27    14    15 ar  
    28    14    18 ar  
    29    15    16 ar  
    30    16    17 ar  
    31    16    42 1   
    32    17    19 ar  
    33    17    43 1   
    34    18    19 ar  
    35    19    20 1   
    36    20    21 1   
    37    20    44 1   
    38    21    22 ar  
    39    21    30 ar  
    40    22    23 ar  
    41    22    45 1   
    42    23    24 1   
    43    23    28 ar  
    44    24    25 1   
    45    24    26 1   
    46    24    27 1   
    47    28    29 ar  
    48    28    46 1   
    49    29    30 ar  
    50    29    47 1   
    51    30    48 1   
@<TRIPOS>SUBSTRUCTURE
     1 CC3         1 TEMP              0 ****  ****    0 ROOT
