@<TRIPOS>MOLECULE
CC4
   12    11     1     0     0
SMALL
bcc


@<TRIPOS>ATOM
      1 C4          0.0090    0.6110   -0.1280 c         1 CC4      0.908800
      2 O1          1.2600    0.5230    0.0300 o         1 CC4     -0.831300
      3 C2         -0.8910    0.1360    1.0160 ce        1 CC4     -0.162400
      4 C3         -0.2110   -0.3950    2.2160 c3        1 CC4     -0.064900
      5 C1         -2.2200    0.2160    0.8900 c2        1 CC4     -0.080400
      6 SE         -3.4550   -0.2230    1.9660 sh        1 CC4     -0.389400
      7 H31C       -0.5050   -1.4580    2.4040 hc        1 CC4      0.032367
      8 H32C        0.8990   -0.3520    2.0720 hc        1 CC4      0.032367
      9 H11C       -0.4760    0.2050    3.1230 hc        1 CC4      0.032367
     10 H12C       -2.6420    0.6270   -0.0450 h4        1 CC4      0.174000
     11 HSE        -2.7590   -0.6790    2.9910 hs        1 CC4      0.178800
     12 OXT        -0.5400    1.0670   -1.1690 o         1 CC4     -0.831300
@<TRIPOS>BOND
     1    1    2 1   
     2    1    3 1   
     3    1   12 1   
     4    3    4 1   
     5    3    5 2   
     6    4    7 1   
     7    4    8 1   
     8    4    9 1   
     9    5    6 1   
    10    5   10 1   
    11    6   11 1   
@<TRIPOS>SUBSTRUCTURE
     1 CC4         1 TEMP              0 ****  ****    0 ROOT
