@<TRIPOS>MOLECULE
molecule
   12    11     1     0     0
SMALL
bcc


@<TRIPOS>ATOM
      1 C4           0.0000     0.0000     0.0000 c          1 CC4       0.885800
      2 O1           1.2150     0.0000     0.0000 o          1 CC4      -0.840300
      3 C2          -0.7350     0.0000     1.2720 ce         1 CC4      -0.164400
      4 C3          -0.0700     0.0000     2.4250 c2         1 CC4      -0.224000
      5 C1          -2.2430     0.0000     1.2710 c3         1 CC4       0.203900
      6 SE          -2.8970     0.0000     3.1180 sh         1 CC4      -0.614900
      7 H31C        -0.6120     0.0000     3.3630 ha         1 CC4       0.115500
      8 H32C         1.0130     0.0000     2.4260 ha         1 CC4       0.115500
      9 H11C        -2.6040    -0.8840     0.7610 h1         1 CC4       0.068700
     10 H12C        -2.6040     0.8850     0.7600 h1         1 CC4       0.068700
     11 HSE         -4.3400     0.0000     3.1180 hs         1 CC4       0.225800
     12 OXT         -0.6730     0.0060    -1.1680 o          1 CC4      -0.840300
@<TRIPOS>BOND
     1     1     2 1
     2     1     3 1
     3     3     4 2
     4     3     5 1
     5     5     6 1
     6     6    11 1
     7     4     7 1
     8     4     8 1
     9     5     9 1
    10     5    10 1
    11     1    12 1
@<TRIPOS>SUBSTRUCTURE
     1 CC4         1 TEMP              0 ****  ****    0 ROOT
