@<TRIPOS>MOLECULE
molecule
   28    30     1     0     0
SMALL
bcc


@<TRIPOS>ATOM
      1 N1           0.0000     0.0000     0.0000 nb         1 CC5      -0.836000
      2 C2           1.3200     0.0000     0.0000 ca         1 CC5       0.741900
      3 N3           2.0260     0.0000     1.1110 nb         1 CC5      -0.787000
      4 C4           1.4250     0.0010     2.2960 ca         1 CC5       0.479800
      5 N9           1.8530     0.0010     3.6000 na         1 CC5      -0.254000
      6 C8           0.7450     0.0010     4.3940 cc         1 CC5       0.427700
      7 N7          -0.3290     0.0020     3.6580 nd         1 CC5      -0.589100
      8 C5           0.0200     0.0070     2.3500 ca         1 CC5      -0.213200
      9 C6          -0.6890     0.0010     1.1370 ca         1 CC5       0.788200
     10 N6          -2.0730     0.0000     1.1270 nv         1 CC5      -0.984500
     11 C1'          3.2450     0.0010     4.0550 c3         1 CC5       0.259800
     12 C2'          3.7840     1.4450     4.1390 c3         1 CC5       0.104100
     13 C3'          4.6890     1.4360     5.3930 c3         1 CC5       0.080100
     14 C4'          4.5920    -0.0160     5.9160 c3         1 CC5       0.107400
     15 O4'          3.3330    -0.5080     5.4050 os         1 CC5      -0.415600
     16 O2'          4.5470     1.7720     2.9750 oh         1 CC5      -0.560800
     17 O3'          6.0380     1.7510     5.0420 oh         1 CC5      -0.572800
     18 H2           1.8420    -0.0010    -0.9490 h5         1 CC5       0.062100
     19 H8           0.7560     0.0010     5.4770 h5         1 CC5       0.087800
     20 H6N1        -2.5670    -0.0030     0.2560 hn         1 CC5       0.450300
     21 H6N2        -2.5800     0.0030     1.9900 hn         1 CC5       0.450300
     22 H1'          3.8640    -0.5910     3.3910 h2         1 CC5       0.112700
     23 H2'          2.9670     2.1440     4.2710 h1         1 CC5       0.057700
     24 H3'          4.3120     2.1290     6.1350 h1         1 CC5       0.047700
     25 H4'1         4.5870    -0.0260     6.9990 h1         1 CC5       0.070700
     26 H4'2         5.4110    -0.6100     5.5300 h1         1 CC5       0.070700
     27 HA           4.5000     2.7010     2.8190 ho         1 CC5       0.411000
     28 HB           6.4280     2.2700     5.7260 ho         1 CC5       0.403000
@<TRIPOS>BOND
     1     1     2 ar
     2     1     9 ar
     3     2     3 ar
     4     2    18 1
     5     3     4 ar
     6     4     5 1
     7     4     8 ar
     8     5     6 1
     9     5    11 1
    10     6     7 2
    11     6    19 1
    12     7     8 1
    13     8     9 ar
    14     9    10 1
    15    10    20 1
    16    10    21 1
    17    11    12 1
    18    11    15 1
    19    11    22 1
    20    12    13 1
    21    12    16 1
    22    12    23 1
    23    13    14 1
    24    13    17 1
    25    13    24 1
    26    14    15 1
    27    14    25 1
    28    14    26 1
    29    16    27 1
    30    17    28 1
@<TRIPOS>SUBSTRUCTURE
     1 CC5         1 TEMP              0 ****  ****    0 ROOT
