@<TRIPOS>MOLECULE
molecule
   31    33     1     0     0
SMALL
bcc


@<TRIPOS>ATOM
      1 OAO          0.0000     0.0000     0.0000 oh         1 CC6      -0.484100
      2 CAI          1.3610     0.0000     0.0000 cc         1 CC6      -0.099100
      3 CAH          2.0760     0.0000     1.2270 c          1 CC6       0.565900
      4 OAN          1.4940     0.0000     2.2990 o          1 CC6      -0.519100
      5 CAE          3.5460    -0.0010     1.1530 ca         1 CC6      -0.268600
      6 CAD          4.3310    -0.0010     2.3140 ca         1 CC6       0.229100
      7 OAL          3.7430    -0.0010     3.5370 oh         1 CC6      -0.462100
      8 CAC          5.7080    -0.0030     2.2030 ca         1 CC6      -0.283000
      9 CAB          6.3100    -0.0030     0.9490 ca         1 CC6       0.195100
     10 OAM          7.6630    -0.0040     0.8520 oh         1 CC6      -0.516100
     11 CAA          5.5400    -0.0020    -0.2030 ca         1 CC6      -0.215000
     12 CAF          4.1550    -0.0020    -0.1130 ca         1 CC6       0.202100
     13 OAG          3.3920    -0.0020    -1.2260 os         1 CC6      -0.185200
     14 CAJ          2.0490    -0.0060    -1.1760 cd         1 CC6       0.186900
     15 CAK          1.2920    -0.0060    -2.4400 ca         1 CC6      -0.093800
     16 CAP          0.3660     1.0060    -2.7060 ca         1 CC6      -0.040000
     17 CAT         -0.3390     1.0000    -3.8910 ca         1 CC6      -0.168000
     18 CAS         -0.1330    -0.0070    -4.8200 ca         1 CC6      -0.072000
     19 CAR          0.7780    -1.0140    -4.5700 ca         1 CC6      -0.223000
     20 CAQ          1.5000    -1.0200    -3.3860 ca         1 CC6       0.163100
     21 OAU          2.4000    -2.0060    -3.1420 oh         1 CC6      -0.492100
     22 H1          -0.3140    -0.8050     0.3780 ho         1 CC6       0.423000
     23 H2           4.2650    -0.5090     4.1360 ho         1 CC6       0.424000
     24 H3           6.3220     0.0190     3.0960 ha         1 CC6       0.150000
     25 H4           7.9780    -0.8930     0.8600 ho         1 CC6       0.429000
     26 H5           6.0190    -0.0020    -1.1750 ha         1 CC6       0.162000
     27 H6           0.2020     1.7950    -1.9820 ha         1 CC6       0.155000
     28 H7          -1.0560     1.7850    -4.0960 ha         1 CC6       0.140000
     29 H8          -0.6930    -0.0060    -5.7480 ha         1 CC6       0.135000
     30 H9           0.9340    -1.7960    -5.3030 ha         1 CC6       0.136000
     31 H10          2.1530    -2.7820    -3.6180 ho         1 CC6       0.425000
@<TRIPOS>BOND
     1    10     9 1
     2     9    11 ar
     3     9     8 ar
     4    11    12 ar
     5     8     6 ar
     6    12    13 1
     7    12     5 ar
     8    13    14 1
     9     6     5 ar
    10     6     7 1
    11     5     3 1
    12    21    20 1
    13    14    15 1
    14    14     2 2
    15    20    15 ar
    16    20    19 ar
    17     3     2 1
    18     3     4 2
    19    15    16 ar
    20    19    18 ar
    21     2     1 1
    22    16    17 ar
    23    18    17 ar
    24     1    22 1
    25     7    23 1
    26     8    24 1
    27    10    25 1
    28    11    26 1
    29    16    27 1
    30    17    28 1
    31    18    29 1
    32    19    30 1
    33    21    31 1
@<TRIPOS>SUBSTRUCTURE
     1 CC6         1 TEMP              0 ****  ****    0 ROOT
