@<TRIPOS>MOLECULE
molecule
   33    35     1     0     0
SMALL
bcc


@<TRIPOS>ATOM
      1 O2           0.0000     0.0000     0.0000 o          1 CC7      -0.538500
      2 C2           1.2190     0.0000     0.0000 c          1 CC7       0.830900
      3 N3           1.8740     0.0000     1.1610 nc         1 CC7      -0.629100
      4 C4           3.2000    -0.0010     1.1900 cd         1 CC7       0.576500
      5 N4           3.8650    -0.0020     2.3950 nz         1 CC7      -0.742600
      6 C5           3.9240    -0.0010    -0.0190 cd         1 CC7      -0.429600
      7 C6           3.2440     0.0000    -1.1900 cc         1 CC7       0.134600
      8 N1           1.8820    -0.0050    -1.1710 n          1 CC7      -0.325000
      9 C1'          1.1340    -0.0090    -2.4310 c3         1 CC7       0.278500
     10 O4'          0.1880     1.0870    -2.4460 os         1 CC7      -0.370600
     11 C4'         -0.9390     0.6050    -3.1740 c3         1 CC7       0.036100
     12 C5'         -2.2320     1.3800    -3.0140 c3         1 CC7       0.189400
     13 O5'         -3.2020     0.7590    -3.8920 os         1 CC7      -0.525200
     14 P           -3.4200    -0.8500    -3.8610 p5         1 CC7       1.533500
     15 O2P         -4.4690    -1.2410    -2.7050 oh         1 CC7      -0.733400
     16 O1P         -3.9170    -1.3180    -5.1740 o          1 CC7      -0.738300
     17 O3'         -1.9650    -1.5180    -3.5430 os         1 CC7      -0.507200
     18 C3'         -1.1340    -0.8270    -2.6060 c3         1 CC7       0.127100
     19 C2'          0.3190    -1.3200    -2.5550 c3         1 CC7       0.122100
     20 O2'          0.6570    -2.0130    -3.7580 oh         1 CC7      -0.562800
     21 HN4          4.4390     0.8160     2.4590 hn         1 CC7       0.479467
     22 HN4A         3.2010    -0.0040     3.1430 hn         1 CC7       0.479467
     23 H5           5.0070     0.0010    -0.0120 ha         1 CC7       0.178000
     24 H6           3.7780    -0.0020    -2.1330 h4         1 CC7       0.206000
     25 H1'          1.8140     0.0810    -3.2690 h2         1 CC7       0.111700
     26 H4'         -0.6860     0.5420    -4.2250 h1         1 CC7       0.098700
     27 H5'         -2.5740     1.3220    -1.9880 h1         1 CC7       0.081700
     28 H5'A        -2.0820     2.4130    -3.3030 h1         1 CC7       0.081700
     29 HO2P        -5.1990    -1.7000    -3.0850 ho         1 CC7       0.489000
     30 H3'         -1.5800    -0.8020    -1.6190 h1         1 CC7       0.095700
     31 H2'          0.4760    -1.9490    -1.6870 h1         1 CC7       0.063700
     32 HO2'         0.8180    -2.9210    -3.5630 ho         1 CC7       0.428000
     33 H43          4.4400    -0.8190     2.4580 hn         1 CC7       0.479467
@<TRIPOS>BOND
     1     1     2 2
     2     2     3 1
     3     2     8 1
     4     3     4 2
     5     4     5 1
     6     4     6 1
     7     6     7 2
     8     7     8 1
     9     8     9 1
    10     9    10 1
    11     9    19 1
    12    10    11 1
    13    11    12 1
    14    11    18 1
    15    12    13 1
    16    13    14 1
    17    14    15 1
    18    14    16 2
    19    14    17 1
    20    17    18 1
    21    18    19 1
    22    19    20 1
    23     5    21 1
    24     5    22 1
    25     6    23 1
    26     7    24 1
    27     9    25 1
    28    11    26 1
    29    12    27 1
    30    12    28 1
    31    15    29 1
    32    18    30 1
    33    19    31 1
    34    20    32 1
    35    33     5 1
@<TRIPOS>SUBSTRUCTURE
     1 CC7         1 TEMP              0 ****  ****    0 ROOT
