@<TRIPOS>MOLECULE
CC8
   14    13     1     0     0
SMALL
bcc


@<TRIPOS>ATOM
      1 O1         -0.0170    0.3120    0.0240 o         1 CC8     -0.840300
      2 C4          1.2250    0.0800    0.0060 c         1 CC8      0.919600
      3 C2          1.9780   -0.0490    1.3650 c3        1 CC8     -0.191700
      4 C1          0.9980   -0.0650    2.5070 c3        1 CC8      0.073700
      5 S           1.8400    0.3580    4.0340 sh        1 CC8     -0.481900
      6 C3          2.8590   -1.2750    1.3520 c3        1 CC8     -0.068100
      7 OXT         1.9120   -0.0340   -1.0460 o         1 CC8     -0.840300
      8 H2          2.6260    0.8670    1.4450 hc        1 CC8      0.050700
      9 H11C        0.1850    0.6760    2.3090 h1        1 CC8      0.066200
     10 H12C        0.5360   -1.0730    2.6190 h1        1 CC8      0.066200
     11 H31C        3.5000   -1.2550    0.4370 hc        1 CC8      0.022033
     12 H32C        3.5100   -1.3100    2.2590 hc        1 CC8      0.022033
     13 H33C        2.2400   -2.2040    1.3250 hc        1 CC8      0.022033
     14 H           0.7850    0.5720    4.7950 hs        1 CC8      0.179800
@<TRIPOS>BOND
     1    1    2 1   
     2    2    3 1   
     3    2    7 1   
     4    3    4 1   
     5    3    6 1   
     6    3    8 1   
     7    4    5 1   
     8    4    9 1   
     9    4   10 1   
    10    5   14 1   
    11    6   11 1   
    12    6   12 1   
    13    6   13 1   
@<TRIPOS>SUBSTRUCTURE
     1 CC8         1 TEMP              0 ****  ****    0 ROOT
