@<TRIPOS>MOLECULE
molecule
   14    13     1     0     0
SMALL
bcc


@<TRIPOS>ATOM
      1 O1           0.0000     0.0000     0.0000 o          1 CC8      -0.847300
      2 C4           1.2090     0.0000     0.0000 c          1 CC8       0.898600
      3 C2           1.9610     0.0000     1.3060 c3         1 CC8      -0.161700
      4 C1           0.9660    -0.0000     2.4680 c3         1 CC8       0.095700
      5 S            1.8680     0.1490     4.0350 sh         1 CC8      -0.511900
      6 C3           2.8410    -1.2490     1.3870 c3         1 CC8      -0.070100
      7 OXT          1.8800    -0.0060    -1.1620 o          1 CC8      -0.847300
      8 H2           2.5840     0.8850     1.3640 hc         1 CC8       0.053700
      9 H11C         0.2860     0.8370     2.3620 h1         1 CC8       0.061200
     10 H12C         0.4040    -0.9260     2.4620 h1         1 CC8       0.061200
     11 H31C         3.6110    -1.1980     0.6270 hc         1 CC8       0.026033
     12 H32C         3.3030    -1.3020     2.3660 hc         1 CC8       0.026033
     13 H33C         2.2320    -2.1300     1.2270 hc         1 CC8       0.026033
     14 H            1.0270     0.5090     4.9970 hs         1 CC8       0.187800
@<TRIPOS>BOND
     1     1     2 1
     2     2     3 1
     3     2     7 1
     4     3     4 1
     5     3     6 1
     6     4     5 1
     7     3     8 1
     8     4     9 1
     9     4    10 1
    10     6    11 1
    11     6    12 1
    12     6    13 1
    13     5    14 1
@<TRIPOS>SUBSTRUCTURE
     1 CC8         1 TEMP              0 ****  ****    0 ROOT
