@<TRIPOS>MOLECULE
CCA
   44    46     1     0     0
SMALL
bcc


@<TRIPOS>ATOM
      1 C1           0.0000     0.0000     0.0000 c3         1 CCA       0.281700
      2 O5           1.4520     0.0000     0.0000 os         1 CCA      -0.425900
      3 C6           2.1240     0.0000     1.1630 c          1 CCA       0.663100
      4 O7           1.5190    -0.0010     2.2090 o          1 CCA      -0.536000
      5 C8           3.6300     0.0010     1.1630 c3         1 CCA      -0.117700
      6 C10          4.1440     1.3200     0.5630 c3         1 CCA      -0.003500
      7 N12          3.5380     2.4260     1.3560 nx         1 CCA      -0.015400
      8 C14          3.7710     3.7200     0.6980 c3         1 CCA       0.021100
      9 C18          5.6780     1.4230     0.8890 c3         1 CCA      -0.032400
     10 C21          5.7410     2.1170     2.2650 c3         1 CCA      -0.042400
     11 C24          4.2650     2.3650     2.6510 c3         1 CCA      -0.009500
     12 C26          3.7590     1.1210     3.3990 c3         1 CCA      -0.091400
     13 C29          4.1430    -0.1270     2.6000 c3         1 CCA       0.193100
     14 O1           3.5510    -1.2980     3.2210 os         1 CCA      -0.390900
     15 C2           4.2270    -1.9690     4.1740 c          1 CCA       0.732700
     16 O3           5.3310    -1.5950     4.5130 o          1 CCA      -0.590000
     17 C4           3.6240    -3.1610     4.8070 ca         1 CCA      -0.169600
     18 C5           4.3220    -3.8590     5.7950 ca         1 CCA      -0.038000
     19 C7           3.7530    -4.9700     6.3810 ca         1 CCA      -0.112000
     20 C9           2.4950    -5.3940     5.9920 ca         1 CCA      -0.046000
     21 C11          1.7980    -4.7080     5.0130 ca         1 CCA      -0.112000
     22 C13          2.3520    -3.5910     4.4230 ca         1 CCA      -0.038000
     23 H2          -0.3610     0.8310     0.5930 h1         1 CCA       0.013033
     24 H3          -0.3610     0.0980    -1.0170 h1         1 CCA       0.013033
     25 H4          -0.3610    -0.9290     0.4230 h1         1 CCA       0.013033
     26 H9           3.9940    -0.8320     0.5720 hc         1 CCA       0.097700
     27 H11          3.9370     1.4060    -0.4970 hx         1 CCA       0.102700
     28 H13          2.5590     2.2690     1.4920 hn         1 CCA       0.274800
     29 H15          3.2330     3.7500    -0.2410 hx         1 CCA       0.071367
     30 H16          3.4210     4.5190     1.3400 hx         1 CCA       0.071367
     31 H17          4.8310     3.8440     0.5110 hx         1 CCA       0.071367
     32 H19          6.1830     2.0210     0.1400 hc         1 CCA       0.060200
     33 H20          6.1190     0.4350     0.9440 hc         1 CCA       0.060200
     34 H22          6.2740     3.0570     2.1880 hc         1 CCA       0.064700
     35 H23          6.2170     1.4710     2.9920 hc         1 CCA       0.064700
     36 H25          4.1410     3.2720     3.2320 hx         1 CCA       0.094700
     37 H27          4.2140     1.0780     4.3810 hc         1 CCA       0.080700
     38 H28          2.6820     1.1710     3.5000 hc         1 CCA       0.080700
     39 H30          5.2210    -0.2310     2.5890 h1         1 CCA       0.063700
     40 H6           5.3070    -3.5270     6.1000 ha         1 CCA       0.119000
     41 H8           4.2930    -5.5120     7.1480 ha         1 CCA       0.115500
     42 H10          2.0540    -6.2690     6.4540 ha         1 CCA       0.111000
     43 H12          0.8130    -5.0440     4.7150 ha         1 CCA       0.115500
     44 H14          1.8060    -3.0540     3.6570 ha         1 CCA       0.119000
@<TRIPOS>BOND
     1     1     2 1   
     2     1    23 1   
     3     1    24 1   
     4     1    25 1   
     5     2     3 1   
     6     3     4 2   
     7     3     5 1   
     8     5     6 1   
     9     5    13 1   
    10     5    26 1   
    11     6     7 1   
    12     6     9 1   
    13     6    27 1   
    14     7     8 1   
    15     7    11 1   
    16     7    28 1   
    17     8    29 1   
    18     8    30 1   
    19     8    31 1   
    20     9    10 1   
    21     9    32 1   
    22     9    33 1   
    23    10    11 1   
    24    10    34 1   
    25    10    35 1   
    26    11    12 1   
    27    11    36 1   
    28    12    13 1   
    29    12    37 1   
    30    12    38 1   
    31    13    14 1   
    32    13    39 1   
    33    14    15 1   
    34    15    16 2   
    35    15    17 1   
    36    17    18 ar  
    37    17    22 ar  
    38    18    19 ar  
    39    18    40 1   
    40    19    20 ar  
    41    19    41 1   
    42    20    21 ar  
    43    20    42 1   
    44    21    22 ar  
    45    21    43 1   
    46    22    44 1   
@<TRIPOS>SUBSTRUCTURE
     1 CCA         1 TEMP              0 ****  ****    0 ROOT
