@<TRIPOS>MOLECULE
CCB
   29    30     1     0     0
SMALL
bcc


@<TRIPOS>ATOM
      1 N1           0.0000     0.0000     0.0000 n          1 CCB      -0.155800
      2 C2          -0.6740     0.9800     0.6330 c          1 CCB       0.624900
      3 O3          -1.8840     1.0320     0.5570 o          1 CCB      -0.653100
      4 C5           1.4640     0.0000     0.0000 c3         1 CCB       0.016700
      5 C6          -0.7330    -1.0660    -0.6880 cy         1 CCB       0.007700
      6 C7           1.9920     0.0000     1.4500 c3         1 CCB      -0.046900
      7 C8           3.2470     0.9070     1.3970 c3         1 CCB      -0.023400
      8 C9           2.8200     2.0230     0.4130 c3         1 CCB      -0.023400
      9 C10          1.9900     1.2870    -0.6590 c3         1 CCB      -0.046900
     10 C20         -0.1490    -2.4670    -0.4490 cy         1 CCB      -0.068400
     11 C21         -0.4320    -2.7530    -1.9330 cy         1 CCB      -0.035400
     12 C22         -0.3320    -1.2360    -2.1620 cy         1 CCB      -0.068400
     13 H2          -0.1370     1.7170     1.2170 h5         1 CCB      -0.011800
     14 H5           1.8400    -0.8670    -0.5300 h1         1 CCB       0.050700
     15 H6          -1.8060    -1.0310    -0.5480 h1         1 CCB       0.085700
     16 H71          1.2520     0.4180     2.1210 hc         1 CCB       0.024700
     17 H72          2.2640    -1.0040     1.7520 hc         1 CCB       0.024700
     18 H81          3.4610     1.3200     2.3750 hc         1 CCB       0.018200
     19 H82          4.0980     0.3600     1.0090 hc         1 CCB       0.018200
     20 H91          2.2120     2.7620     0.9210 hc         1 CCB       0.018200
     21 H92          3.6920     2.4850    -0.0360 hc         1 CCB       0.018200
     22 H101         1.1600     1.9070    -0.9740 hc         1 CCB       0.024700
     23 H102         2.6180     1.0380    -1.5060 hc         1 CCB       0.024700
     24 H201         0.9090    -2.4510    -0.2150 hc         1 CCB       0.031200
     25 H202        -0.7510    -3.0690     0.2210 hc         1 CCB       0.031200
     26 H211         0.3630    -3.3080    -2.4160 hc         1 CCB       0.026200
     27 H212        -1.4270    -3.1440    -2.1070 hc         1 CCB       0.026200
     28 H221         0.6780    -0.9030    -2.3680 hc         1 CCB       0.031200
     29 H222        -1.0800    -0.8610    -2.8500 hc         1 CCB       0.031200
@<TRIPOS>BOND
     1     1     2 1   
     2     1     4 1   
     3     1     5 1   
     4     2     3 2   
     5     2    13 1   
     6     4     6 1   
     7     4     9 1   
     8     4    14 1   
     9     5    10 1   
    10     5    12 1   
    11     5    15 1   
    12     6     7 1   
    13     6    16 1   
    14     6    17 1   
    15     7     8 1   
    16     7    18 1   
    17     7    19 1   
    18     8     9 1   
    19     8    20 1   
    20     8    21 1   
    21     9    22 1   
    22     9    23 1   
    23    10    11 1   
    24    10    24 1   
    25    10    25 1   
    26    11    12 1   
    27    11    26 1   
    28    11    27 1   
    29    12    28 1   
    30    12    29 1   
@<TRIPOS>SUBSTRUCTURE
     1 CCB         1 TEMP              0 ****  ****    0 ROOT
