@<TRIPOS>MOLECULE
CCD
   30    29     1     0     0
SMALL
bcc


@<TRIPOS>ATOM
      1 O7           0.0000     0.0000     0.0000 oh         1 CCD      -0.597800
      2 C5           1.4300     0.0000     0.0000 c3         1 CCD       0.192100
      3 C6           1.9380     0.0000     1.4430 c3         1 CCD      -0.026100
      4 C4           1.9400     1.2480    -0.7210 c3         1 CCD      -0.023400
      5 C3           1.5350     1.1870    -2.1960 c3         1 CCD      -0.054400
      6 C2           2.0460     2.4360    -2.9170 c3         1 CCD      -0.014200
      7 N1           1.6580     2.3770    -4.3320 n4         1 CCD       0.049200
      8 C9           0.1930     2.3160    -4.4360 c3         1 CCD       0.016100
      9 C10          2.1480     3.5760    -5.0260 c3         1 CCD       0.016100
     10 C8           2.2430     1.1800    -4.9510 c3         1 CCD       0.016100
     11 HO7         -0.3140    -0.8820     0.1100 ho         1 CCD       0.406000
     12 HXT          1.7910    -0.8850    -0.5100 h1         1 CCD      -0.000300
     13 H61          3.0210     0.0200     1.4450 hc         1 CCD       0.018367
     14 H62          1.5930    -0.8940     1.9480 hc         1 CCD       0.018367
     15 H63          1.5610     0.8740     1.9590 hc         1 CCD       0.018367
     16 H41          3.0200     1.2940    -0.6450 hc         1 CCD       0.034200
     17 H42          1.5090     2.1310    -0.2640 hc         1 CCD       0.034200
     18 H31          1.9660     0.3040    -2.6520 hc         1 CCD       0.041200
     19 H32          0.4550     1.1420    -2.2720 hc         1 CCD       0.041200
     20 H21          3.1250     2.4810    -2.8400 hx         1 CCD       0.078700
     21 H22          1.6140     3.3180    -2.4610 hx         1 CCD       0.078700
     22 H91         -0.1410     1.3040    -4.2400 hx         1 CCD       0.072922
     23 H92         -0.2480     2.9880    -3.7110 hx         1 CCD       0.072922
     24 H93         -0.1100     2.6100    -5.4330 hx         1 CCD       0.072922
     25 H101         1.7160     4.4580    -4.5690 hx         1 CCD       0.072922
     26 H102         1.8610     3.5320    -6.0690 hx         1 CCD       0.072922
     27 H103         3.2280     3.6210    -4.9490 hx         1 CCD       0.072922
     28 H81          3.2600     1.0530    -4.6010 hx         1 CCD       0.072922
     29 H82          2.2440     1.2940    -6.0280 hx         1 CCD       0.072922
     30 H83          1.6570     0.3100    -4.6800 hx         1 CCD       0.072922
@<TRIPOS>BOND
     1     1     2 1   
     2     1    11 1   
     3     2     3 1   
     4     2     4 1   
     5     2    12 1   
     6     3    13 1   
     7     3    14 1   
     8     3    15 1   
     9     4     5 1   
    10     4    16 1   
    11     4    17 1   
    12     5     6 1   
    13     5    18 1   
    14     5    19 1   
    15     6     7 1   
    16     6    20 1   
    17     6    21 1   
    18     7     8 1   
    19     7     9 1   
    20     7    10 1   
    21     8    22 1   
    22     8    23 1   
    23     8    24 1   
    24     9    25 1   
    25     9    26 1   
    26     9    27 1   
    27    10    28 1   
    28    10    29 1   
    29    10    30 1   
@<TRIPOS>SUBSTRUCTURE
     1 CCD         1 TEMP              0 ****  ****    0 ROOT
