@<TRIPOS>MOLECULE
CCE
   26    25     1     0     0
SMALL
bcc


@<TRIPOS>ATOM
      1 N1           0.0000     0.0000     0.0000 n4         1 CCE       0.039200
      2 C2           1.4690     0.0000     0.0000 c3         1 CCE      -0.009200
      3 C3           1.9790     0.0000     1.4420 c3         1 CCE       0.237400
      4 O4           1.6520    -1.2670     2.0710 os         1 CCE      -0.437900
      5 C5           2.0050    -1.4950     3.3500 c          1 CCE       0.442100
      6 O7           2.5980    -0.6400     3.9780 o          1 CCE      -0.396000
      7 C8          -0.4890     1.1360     0.7920 c3         1 CCE       0.017767
      8 C9          -0.4890    -1.2540     0.5880 c3         1 CCE       0.017767
      9 C10         -0.4900     0.1180    -1.3790 c3         1 CCE       0.017767
     10 N6           1.7010    -2.6710     3.9340 nz         1 CCE       0.262600
     11 H2C1         1.8300    -0.8840    -0.5110 hx         1 CCE       0.103700
     12 H2C2         1.8300     0.8850    -0.5110 hx         1 CCE       0.103700
     13 H3C1         1.5100     0.8080     1.9910 h1         1 CCE       0.064700
     14 H3C2         3.0530     0.1380     1.4450 h1         1 CCE       0.064700
     15 H8C1        -1.5250     1.3330     0.5410 hx         1 CCE       0.077256
     16 H8C2         0.1080     2.0130     0.5730 hx         1 CCE       0.077256
     17 H8C3        -0.4120     0.9020     1.8470 hx         1 CCE       0.077256
     18 H9C1        -0.5210    -1.1580     1.6670 hx         1 CCE       0.077256
     19 H9C2         0.1760    -2.0640     0.3170 hx         1 CCE       0.077256
     20 H9C3        -1.4840    -1.4630     0.2150 hx         1 CCE       0.077256
     21 H101        -0.1320     1.0450    -1.8110 hx         1 CCE       0.077256
     22 H102        -0.1260    -0.7180    -1.9640 hx         1 CCE       0.077256
     23 H103        -1.5730     0.1140    -1.3790 hx         1 CCE       0.077256
     24 H6N1         2.2950    -2.8130     4.7270 hn         1 CCE       0.259133
     25 H6N2         1.8360    -3.4140     3.2780 hn         1 CCE       0.259133
     26 H63          0.7450    -2.6580     4.2320 hn         1 CCE       0.259133
@<TRIPOS>BOND
     1     1     2 1   
     2     1     7 1   
     3     1     8 1   
     4     1     9 1   
     5     2     3 1   
     6     2    11 1   
     7     2    12 1   
     8     3     4 1   
     9     3    13 1   
    10     3    14 1   
    11     4     5 1   
    12     5     6 2   
    13     5    10 1   
    14     7    15 1   
    15     7    16 1   
    16     7    17 1   
    17     8    18 1   
    18     8    19 1   
    19     8    20 1   
    20     9    21 1   
    21     9    22 1   
    22     9    23 1   
    23    10    24 1   
    24    10    25 1   
    25    10    26 1   
@<TRIPOS>SUBSTRUCTURE
     1 CCE         1 TEMP              0 ****  ****    0 ROOT
