@<TRIPOS>MOLECULE
CCK
   47    50     1     0     0
SMALL
bcc


@<TRIPOS>ATOM
      1 N1           0.0000     0.0000     0.0000 nb         1 CCK      -0.509000
      2 C2           1.3200     0.0000     0.0000 ca         1 CCK       0.232900
      3 C3           2.0170     0.0000     1.2040 ca         1 CCK       0.262500
      4 N4           1.3540     0.0020     2.3530 nb         1 CCK      -0.607000
      5 C5           0.0270     0.0030     2.3490 ca         1 CCK       0.251500
      6 C6          -0.6640     0.0020     1.1430 ca         1 CCK       0.231900
      7 N13          3.4130    -0.0010     1.2030 na         1 CCK       0.482100
      8 N15         -0.6750     0.0040     3.5570 na         1 CCK       0.437100
      9 C17          4.2120     0.4720     2.2160 ca         1 CCK      -0.111200
     10 C18          5.5440     0.2780     1.8050 ca         1 CCK      -0.306900
     11 C19          5.4800    -0.3410     0.4840 cc         1 CCK       0.455800
     12 N20          4.2240    -0.4900     0.1740 nd         1 CCK      -0.665100
     13 C26         -2.0320    -0.0920     3.6910 cc         1 CCK      -0.361300
     14 C27         -2.3290    -0.0560     5.0050 cd         1 CCK      -0.030300
     15 C28         -1.1140     0.0660     5.7110 cd         1 CCK      -0.134000
     16 C29         -0.1200     0.0960     4.8020 cc         1 CCK      -0.341300
     17 C35          6.5960     0.6690     2.6420 ca         1 CCK       0.019000
     18 C36          6.3250     1.2370     3.8520 ca         1 CCK      -0.222000
     19 C37          5.0070     1.4310     4.2660 ca         1 CCK       0.101600
     20 C38          3.9530     1.0530     3.4540 ca         1 CCK      -0.199000
     21 N44          4.7490     2.0130     5.5080 nu         1 CCK      -0.418600
     22 C46          5.8610     2.4160     6.3730 c3         1 CCK       0.130500
     23 C48          6.3320     3.8180     5.9790 c3         1 CCK      -0.014100
     24 C51          5.3960     2.4260     7.8310 c3         1 CCK      -0.014100
     25 C57         -3.7070    -0.1320     5.6090 c3         1 CCK      -0.062100
     26 C59         -4.0620    -1.5730     5.8730 c          1 CCK       0.980600
     27 O61         -3.2750    -2.4480     5.5980 o          1 CCK      -0.896300
     28 O63         -5.2510    -1.8840     6.4130 o          1 CCK      -0.896300
     29 H2           1.8610    -0.0020    -0.9390 h4         1 CCK       0.006100
     30 H6          -1.7470     0.0030     1.1390 h4         1 CCK       0.012100
     31 H19          6.1940    -0.6870    -0.2540 h4         1 CCK       0.008800
     32 H26         -2.7450    -0.1810     2.8800 h4         1 CCK       0.150000
     33 H28         -1.0010     0.1210     6.7870 ha         1 CCK       0.122000
     34 H29          0.9380     0.1830     5.0210 h4         1 CCK       0.141000
     35 H35          7.6220     0.5220     2.3290 ha         1 CCK       0.093000
     36 H36          7.1410     1.5380     4.4980 ha         1 CCK       0.116000
     37 H38          2.9310     1.2060     3.7800 ha         1 CCK       0.141000
     38 HN44         3.8050     2.1150     5.8260 hn         1 CCK       0.300800
     39 H46          6.6790     1.7150     6.2600 h1         1 CCK       0.036700
     40 H48          6.9110     3.7610     5.0650 hc         1 CCK       0.009700
     41 H48A         6.9470     4.2280     6.7710 hc         1 CCK       0.009700
     42 H48B         5.4710     4.4570     5.8220 hc         1 CCK       0.009700
     43 H51          6.2320     2.6660     8.4760 hc         1 CCK       0.009700
     44 H51A         4.6180     3.1690     7.9570 hc         1 CCK       0.009700
     45 H51B         5.0080     1.4490     8.0930 hc         1 CCK       0.009700
     46 H57         -4.4270     0.2970     4.9230 hc         1 CCK       0.009700
     47 H57A        -3.7230     0.4200     6.5410 hc         1 CCK       0.009700
@<TRIPOS>BOND
     1     1     2 ar  
     2     1     6 ar  
     3     2     3 ar  
     4     2    29 1   
     5     3     4 ar  
     6     3     7 1   
     7     4     5 ar  
     8     5     6 ar  
     9     5     8 1   
    10     6    30 1   
    11     7     9 1   
    12     7    12 1   
    13     8    13 1   
    14     8    16 1   
    15     9    10 ar  
    16     9    20 ar  
    17    10    11 1   
    18    10    17 ar  
    19    11    12 2   
    20    11    31 1   
    21    13    14 2   
    22    13    32 1   
    23    14    15 1   
    24    14    25 1   
    25    15    16 2   
    26    15    33 1   
    27    16    34 1   
    28    17    18 ar  
    29    17    35 1   
    30    18    19 ar  
    31    18    36 1   
    32    19    20 ar  
    33    19    21 1   
    34    20    37 1   
    35    21    22 1   
    36    21    38 1   
    37    22    23 1   
    38    22    24 1   
    39    22    39 1   
    40    23    40 1   
    41    23    41 1   
    42    23    42 1   
    43    24    43 1   
    44    24    44 1   
    45    24    45 1   
    46    25    26 1   
    47    25    46 1   
    48    25    47 1   
    49    26    27 1   
    50    26    28 1   
@<TRIPOS>SUBSTRUCTURE
     1 CCK         1 TEMP              0 ****  ****    0 ROOT
