@<TRIPOS>MOLECULE
molecule
   20    20     1     0     0
SMALL
bcc


@<TRIPOS>ATOM
      1 CH2          1.5290     0.0000     0.0000 c3         1 CCM      -0.057100
      2 CA           0.0000     0.0000     0.0000 c3         1 CCM      -0.162000
      3 CB1         -0.5290     0.0000     1.4480 c3         1 CCM      -0.059400
      4 CB2         -0.5270     1.2860    -0.6600 c3         1 CCM      -0.059400
      5 CG1         -0.7980     1.4950     1.7540 c3         1 CCM      -0.089400
      6 CG2         -1.3570     2.0220     0.4110 c3         1 CCM      -0.089400
      7 C           -0.5150    -1.2090    -0.7370 c          1 CCM       0.901600
      8 O           -1.2240    -2.0060    -0.1690 o          1 CCM      -0.851800
      9 OXT         -0.1880    -1.4010    -2.0240 o          1 CCM      -0.851800
     10 HH21         1.8900    -0.9270     0.4300 hc         1 CCM       0.018367
     11 HH22         1.8900     0.0910    -1.0170 hc         1 CCM       0.018367
     12 HH23         1.8900     0.8350     0.5880 hc         1 CCM       0.018367
     13 HB11         0.2210    -0.3950     2.1240 hc         1 CCM       0.044200
     14 HB12        -1.4470    -0.5710     1.5150 hc         1 CCM       0.044200
     15 HB21         0.3030     1.9060    -0.9760 hc         1 CCM       0.044200
     16 HB22        -1.1540     1.0360    -1.5070 hc         1 CCM       0.044200
     17 HG11         0.1230     2.0040     2.0110 hc         1 CCM       0.021700
     18 HG12        -1.5350     1.5970     2.5420 hc         1 CCM       0.021700
     19 HG21        -2.4060     1.7710     0.3150 hc         1 CCM       0.021700
     20 HG22        -1.2080     3.0920     0.3350 hc         1 CCM       0.021700
@<TRIPOS>BOND
     1     1     2 1
     2     1    10 1
     3     1    11 1
     4     1    12 1
     5     2     3 1
     6     2     4 1
     7     2     7 1
     8     3     5 1
     9     3    13 1
    10     3    14 1
    11     4     6 1
    12     4    15 1
    13     4    16 1
    14     5     6 1
    15     5    17 1
    16     5    18 1
    17     6    19 1
    18     6    20 1
    19     7     8 1
    20     7     9 1
@<TRIPOS>SUBSTRUCTURE
     1 CCM         1 TEMP              0 ****  ****    0 ROOT
