@<TRIPOS>MOLECULE
CCM
   20    20     1     0     0
SMALL
bcc


@<TRIPOS>ATOM
      1 CH2         1.5460   -0.2040   -0.0920 c3        1 CCM     -0.058100
      2 CA          0.0540    0.0340    0.0340 c3        1 CCM     -0.173000
      3 CB1        -0.3650    0.1250    1.5050 c3        1 CCM     -0.064900
      4 CB2        -0.3400    1.3660   -0.6110 c3        1 CCM     -0.064900
      5 CG1        -1.1190    1.4320    1.7090 c3        1 CCM     -0.071900
      6 CG2        -1.2900    2.0770    0.3410 c3        1 CCM     -0.071900
      7 C          -0.6550   -1.1580   -0.6850 c         1 CCM      0.919600
      8 O          -1.0030   -2.1570    0.0060 o         1 CCM     -0.843300
      9 OXT        -0.8210   -1.0810   -1.9360 o         1 CCM     -0.843300
     10 HH21        2.1300    0.6140    0.3980 hc        1 CCM      0.016033
     11 HH22        1.8280   -0.2510   -1.1710 hc        1 CCM      0.016033
     12 HH23        1.8160   -1.1740    0.3910 hc        1 CCM      0.016033
     13 HB11        0.5290    0.0890    2.1770 hc        1 CCM      0.041200
     14 HB12       -1.0120   -0.7550    1.7600 hc        1 CCM      0.041200
     15 HB21       -0.8220    1.1780   -1.6050 hc        1 CCM      0.041200
     16 HB22        0.5660    2.0010   -0.7870 hc        1 CCM      0.041200
     17 HG11       -2.1130    1.2480    2.1870 hc        1 CCM      0.014450
     18 HG12       -0.5470    2.1130    2.3890 hc        1 CCM      0.014450
     19 HG21       -1.0760    3.1730    0.3840 hc        1 CCM      0.014450
     20 HG22       -2.3460    1.9560   -0.0100 hc        1 CCM      0.014450
@<TRIPOS>BOND
     1    1    2 1   
     2    1   10 1   
     3    1   11 1   
     4    1   12 1   
     5    2    3 1   
     6    2    4 1   
     7    2    7 1   
     8    3    5 1   
     9    3   13 1   
    10    3   14 1   
    11    4    6 1   
    12    4   15 1   
    13    4   16 1   
    14    5    6 1   
    15    5   17 1   
    16    5   18 1   
    17    6   19 1   
    18    6   20 1   
    19    7    8 1   
    20    7    9 1   
@<TRIPOS>SUBSTRUCTURE
     1 CCM         1 TEMP              0 ****  ****    0 ROOT
