@<TRIPOS>MOLECULE
CCN
    6     5     1     0     0
SMALL
bcc


@<TRIPOS>ATOM
      1 N            2.6080     0.0000     0.0200 n1         1 CCN      -0.395800
      2 C1           1.4720     0.0000     0.0000 c1         1 CCN       0.185700
      3 C2           0.0000     0.0000     0.0000 c3         1 CCN       0.133000
      4 H21         -0.3610    -0.9990     0.2120 hc         1 CCN       0.025700
      5 H22          0.0530     0.0380    -1.0810 hc         1 CCN       0.025700
      6 H23         -0.6210     0.7430     0.4860 hc         1 CCN       0.025700
@<TRIPOS>BOND
     1     1     2 3   
     2     2     3 1   
     3     3     4 1   
     4     3     5 1   
     5     3     6 1   
@<TRIPOS>SUBSTRUCTURE
     1 CCN         1 TEMP              0 ****  ****    0 ROOT
