@<TRIPOS>MOLECULE
CCO
   23    24     1     0     0
SMALL
bcc


@<TRIPOS>ATOM
      1 C1         -0.0150    0.0010   -0.0480 ca        1 CCO     -0.088500
      2 C2          1.3870   -0.0010    0.0000 ca        1 CCO     -0.106000
      3 C3          2.0460   -0.0020    1.2290 ca        1 CCO     -0.139000
      4 C4          1.3240   -0.0010    2.4200 ca        1 CCO     -0.128000
      5 C5         -0.0730    0.0020    2.3680 ca        1 CCO      0.004400
      6 C6         -0.7500    0.0030    1.1460 ca        1 CCO     -0.086000
      7 CL5        -0.9630    0.0030    3.8220 cl        1 CCO     -0.114400
      8 O1         -1.0650    0.0090   -3.4570 os        1 CCO     -0.162100
      9 C2A        -2.3420   -0.0020   -2.7910 cc        1 CCO      0.512700
     10 S3         -3.7680   -0.0080   -3.6570 ss        1 CCO      0.009600
     11 N3         -2.1220   -0.0070   -1.4650 nd        1 CCO     -0.746000
     12 C1A        -0.7070    0.0020   -1.3360 cd        1 CCO      0.571500
     13 N2         -0.1070    0.0120   -2.5590 nc        1 CCO     -0.417300
     14 C1B        -3.1710    0.0030   -5.3300 c3        1 CCO     -0.201300
     15 C          -4.5410   -0.0040   -6.0240 c         1 CCO      0.922600
     16 O2         -4.6560    0.0000   -7.2670 o         1 CCO     -0.785300
     17 O3         -5.4960   -0.0130   -5.1700 o         1 CCO     -0.785300
     18 HC2         1.9760   -0.0020   -0.9300 ha        1 CCO      0.153000
     19 HC3         3.1450   -0.0040    1.2580 ha        1 CCO      0.129000
     20 HC4         1.8470   -0.0010    3.3870 ha        1 CCO      0.136000
     21 HC6        -1.8530    0.0040    1.1230 ha        1 CCO      0.177000
     22 H1B1       -2.5710   -0.8940   -5.5900 h1        1 CCO      0.071700
     23 H1B2       -2.5830    0.9100   -5.5830 h1        1 CCO      0.071700
@<TRIPOS>BOND
     1    1    2 ar  
     2    1    6 ar  
     3    1   12 1   
     4    2    3 ar  
     5    2   18 1   
     6    3    4 ar  
     7    3   19 1   
     8    4    5 ar  
     9    4   20 1   
    10    5    6 ar  
    11    5    7 1   
    12    6   21 1   
    13    8    9 1   
    14    8   13 1   
    15    9   10 1   
    16    9   11 2   
    17   10   14 1   
    18   11   12 1   
    19   12   13 2   
    20   14   15 1   
    21   14   22 1   
    22   14   23 1   
    23   15   16 1   
    24   15   17 1   
@<TRIPOS>SUBSTRUCTURE
     1 CCO         1 TEMP              0 ****  ****    0 ROOT
