@<TRIPOS>MOLECULE
molecule
   17    16     1     0     0
SMALL
bcc


@<TRIPOS>ATOM
      1 P            0.0000     0.0000     0.0000 p5         1 CCP       1.059700
      2 O1P          1.4800     0.0000     0.0000 o          1 CCP      -0.923167
      3 O2P         -0.5350     0.0000     1.5180 o          1 CCP      -0.923167
      4 O3P         -0.5360    -1.3140    -0.7590 o          1 CCP      -0.923167
      5 C1          -0.6050     1.4880    -0.8590 c3         1 CCP      -0.247600
      6 C2          -0.0970     1.4880    -2.3010 c3         1 CCP      -0.041400
      7 C3          -0.6050     2.7370    -3.0230 c3         1 CCP      -0.089400
      8 C4          -0.0950     2.7370    -4.4650 c3         1 CCP      -0.091100
      9 H11         -0.2430     2.3720    -0.3480 hc         1 CCP       0.013700
     10 H12         -1.6890     1.4890    -0.8580 hc         1 CCP       0.013700
     11 H21          0.9860     1.4870    -2.3020 hc         1 CCP       0.045200
     12 H22         -0.4590     0.6040    -2.8120 hc         1 CCP       0.045200
     13 H31         -1.6880     2.7380    -3.0230 hc         1 CCP       0.017200
     14 H32         -0.2430     3.6210    -2.5120 hc         1 CCP       0.017200
     15 H41         -0.4570     1.8540    -4.9760 hc         1 CCP       0.009367
     16 H42          0.9880     2.7370    -4.4650 hc         1 CCP       0.009367
     17 H43         -0.4560     3.6230    -4.9750 hc         1 CCP       0.009367
@<TRIPOS>BOND
     1     1     2 1
     2     1     3 1
     3     1     4 1
     4     1     5 1
     5     5     6 1
     6     5     9 1
     7     5    10 1
     8     6     7 1
     9     6    11 1
    10     6    12 1
    11     7     8 1
    12     7    13 1
    13     7    14 1
    14     8    15 1
    15     8    16 1
    16     8    17 1
@<TRIPOS>SUBSTRUCTURE
     1 CCP         1 TEMP              0 ****  ****    0 ROOT
