@<TRIPOS>MOLECULE
CCP
   17    16     1     0     0
SMALL
bcc


@<TRIPOS>ATOM
      1 P           0.0410   -0.0120   -0.0960 p5        1 CCP      1.218700
      2 O1P         1.5380    0.1750   -0.2330 o         1 CCP     -0.963167
      3 O2P        -0.4700   -0.0050    1.3290 o         1 CCP     -0.963167
      4 O3P        -0.5360   -1.1070   -0.9700 o         1 CCP     -0.963167
      5 C1         -0.6490    1.5090   -0.8000 c3        1 CCP     -0.273600
      6 C2         -0.1520    1.5100   -2.2010 c3        1 CCP     -0.058400
      7 C3         -0.6030    2.7080   -3.0160 c3        1 CCP     -0.076400
      8 C4         -0.0740    2.6670   -4.4280 c3        1 CCP     -0.080100
      9 H11        -1.7550    1.4670   -0.7380 hc        1 CCP      0.008700
     10 H12        -0.2840    2.3760   -0.2150 hc        1 CCP      0.008700
     11 H21         0.9720    1.4660   -2.1630 hc        1 CCP      0.060700
     12 H22        -0.5000    0.5560   -2.6860 hc        1 CCP      0.060700
     13 H31        -0.2560    3.6510   -2.5170 hc        1 CCP      0.004700
     14 H32        -1.7240    2.7430   -3.0390 hc        1 CCP      0.004700
     15 H41        -0.4150    3.5550   -5.0150 hc        1 CCP      0.003700
     16 H42         1.0430    2.6550   -4.4240 hc        1 CCP      0.003700
     17 H43        -0.4280    1.7450   -4.9490 hc        1 CCP      0.003700
@<TRIPOS>BOND
     1    1    2 1   
     2    1    3 1   
     3    1    4 1   
     4    1    5 1   
     5    5    6 1   
     6    5    9 1   
     7    5   10 1   
     8    6    7 1   
     9    6   11 1   
    10    6   12 1   
    11    7    8 1   
    12    7   13 1   
    13    7   14 1   
    14    8   15 1   
    15    8   16 1   
    16    8   17 1   
@<TRIPOS>SUBSTRUCTURE
     1 CCP         1 TEMP              0 ****  ****    0 ROOT
