@<TRIPOS>MOLECULE
CCT
   40    42     1     0     0
SMALL
bcc


@<TRIPOS>ATOM
      1 C1           0.0000     0.0000     0.0000 ca         1 CCT      -0.071500
      2 C2           1.3980     0.0000     0.0000 ca         1 CCT      -0.019000
      3 C3           2.0960     0.0000     1.2110 ca         1 CCT      -0.071500
      4 C4           1.4110    -0.0000     2.3990 ca         1 CCT      -0.115500
      5 C5           0.0140    -0.0000     2.3980 ca         1 CCT       0.108000
      6 C6          -0.6860    -0.0060     1.1870 ca         1 CCT      -0.115500
      7 C7          -1.7100    -0.2820     6.1760 cc         1 CCT       0.212300
      8 C8          -2.4240     0.4900     5.2580 cd         1 CCT      -0.060400
      9 C9          -1.9160     0.6310     3.9900 cd         1 CCT      -0.123000
     10 C10         -0.7250    -0.0010     3.6770 cc         1 CCT      -0.027100
     11 S11         -0.3090    -0.8160     5.2080 ss         1 CCT      -0.261800
     12 C12          2.1140    -0.0000    -1.2400 cg         1 CCT       0.256800
     13 N13          2.6970     0.0080    -2.2140 n1         1 CCT      -0.422800
     14 O15         -1.1050    -0.7250     8.5540 o          1 CCT      -0.832300
     15 O16         -2.9800    -0.9510     8.0870 o          1 CCT      -0.832300
     16 S18         -5.1970     0.6160     4.8310 sy         1 CCT       0.904200
     17 C19         -5.1390     3.0930     3.1050 ca         1 CCT       0.013700
     18 C20         -5.2140     1.4610     3.2220 ca         1 CCT      -0.118500
     19 C21         -4.9300     0.7420     2.1530 ca         1 CCT      -0.026000
     20 C22         -4.5850     1.4890     0.9960 ca         1 CCT      -0.139000
     21 C23         -4.5640     3.1110     1.0670 ca         1 CCT      -0.053000
     22 C24         -4.8190     3.6580     2.0210 ca         1 CCT      -0.101000
     23 O26         -6.2900     0.8690     5.5010 o          1 CCT      -0.556800
     24 O27         -5.2920    -0.9190     4.5730 o          1 CCT      -0.556800
     25 H1          -0.5420     0.0120    -0.9380 ha         1 CCT       0.105000
     26 H3           3.1800    -0.0030     1.2110 ha         1 CCT       0.105000
     27 H4           1.9520    -0.0170     3.3370 ha         1 CCT       0.123500
     28 H6          -1.7000    -0.3310     0.9880 ha         1 CCT       0.123500
     29 H9          -2.3610     1.2070     3.1880 ha         1 CCT       0.109000
     30 H17         -3.6160     1.8170     6.3270 hn         1 CCT       0.330800
     31 H21         -5.1640    -0.3160     2.1340 ha         1 CCT       0.147000
     32 H22         -4.2840     0.9760     0.0900 ha         1 CCT       0.101000
     33 H23         -4.4280     3.6910     0.1620 ha         1 CCT       0.086000
     34 H24         -4.6710     4.7210     1.8710 ha         1 CCT       0.097000
     35 H251        -4.7790     3.3740     5.1650 hc         1 CCT       0.027033
     36 H252        -5.7530     4.6390     4.4030 hc         1 CCT       0.027033
     37 H253        -6.4670     3.0570     4.7440 hc         1 CCT       0.027033
     38 C14         -2.0220    -0.5730     7.5240 c          1 CCT       0.894200
     39 N17         -3.6180     1.1080     5.6210 nu         1 CCT      -0.308500
     40 C25         -5.5630     3.5730     4.4450 c3         1 CCT       0.013200
@<TRIPOS>BOND
     1     1     2 ar  
     2     1     6 ar  
     3     1    25 1   
     4     2     3 ar  
     5     2    12 1   
     6     3     4 ar  
     7     3    26 1   
     8     4     5 ar  
     9     4    27 1   
    10     5     6 ar  
    11     5    10 1   
    12     6    28 1   
    13     7     8 2   
    14     7    11 1   
    15     7    38 1   
    16     8     9 1   
    17     8    39 1   
    18     9    10 2   
    19     9    29 1   
    20    10    11 1   
    21    12    13 3   
    22    14    38 1   
    23    15    38 1   
    24    16    18 1   
    25    16    23 2   
    26    16    24 2   
    27    16    39 1   
    28    17    18 ar  
    29    17    22 ar  
    30    17    40 1   
    31    18    19 ar  
    32    19    20 ar  
    33    19    31 1   
    34    20    21 ar  
    35    20    32 1   
    36    21    22 ar  
    37    21    33 1   
    38    22    34 1   
    39    30    39 1   
    40    35    40 1   
    41    36    40 1   
    42    37    40 1   
@<TRIPOS>SUBSTRUCTURE
     1 CCT         1 TEMP              0 ****  ****    0 ROOT
