@<TRIPOS>MOLECULE
CCU
   14    13     1     0     0
SMALL
bcc


@<TRIPOS>ATOM
      1 C2         -0.0830   -0.0010    0.1460 ce        1 CCU     -0.240200
      2 C3          1.2480    0.1470    0.0850 cf        1 CCU     -0.126000
      3 C4          2.1660    0.0590    1.2000 cf        1 CCU     -0.126000
      4 C6          4.3900    0.4850   -0.0330 c         1 CCU      0.893800
      5 O4          3.9330    0.6450   -1.2060 o         1 CCU     -0.872300
      6 O3          5.6410    0.5580    0.2020 o         1 CCU     -0.872300
      7 C5          3.4970    0.2040    1.1390 ce        1 CCU     -0.240200
      8 C1         -0.9760   -0.2870    1.3180 c         1 CCU      0.893800
      9 O1         -0.5220   -0.4200    2.4940 o         1 CCU     -0.872300
     10 O2         -2.2240   -0.3910    1.0770 o         1 CCU     -0.872300
     11 H2         -0.6590    0.0930   -0.7940 ha        1 CCU      0.080000
     12 H3          1.7380    0.3580   -0.8870 ha        1 CCU      0.137000
     13 H4          1.6750   -0.1500    2.1730 ha        1 CCU      0.137000
     14 H5          4.0720    0.1090    2.0790 ha        1 CCU      0.080000
@<TRIPOS>BOND
     1    1    2 2   
     2    1    8 1   
     3    1   11 1   
     4    2    3 1   
     5    2   12 1   
     6    3    7 2   
     7    3   13 1   
     8    4    5 1   
     9    4    6 1   
    10    4    7 1   
    11    7   14 1   
    12    8    9 1   
    13    8   10 1   
@<TRIPOS>SUBSTRUCTURE
     1 CCU         1 TEMP              0 ****  ****    0 ROOT
