@<TRIPOS>MOLECULE
molecule
   14    13     1     0     0
SMALL
bcc


@<TRIPOS>ATOM
      1 C2           0.0000     0.0000     0.0000 ce         1 CCU      -0.558700
      2 C3           1.3510     0.0000     0.0000 cf         1 CCU      -0.050500
      3 C4           2.0820     0.0000     1.2670 cf         1 CCU      -0.050500
      4 C6           4.1270     0.5420     0.0450 c          1 CCU       0.908300
      5 O4           3.4910     0.8540    -0.9430 o          1 CCU      -0.846800
      6 O3           5.4750     0.5620     0.0140 o          1 CCU      -0.846800
      7 C5           3.4270     0.1420     1.2710 ce         1 CCU      -0.558700
      8 C1          -0.7340    -0.1710     1.2600 c          1 CCU       0.908300
      9 O1          -0.1280    -0.2340     2.3120 o          1 CCU      -0.846800
     10 O2          -2.0800    -0.2570     1.2500 o          1 CCU      -0.846800
     11 H2          -0.1960     0.8450     0.6490 ha         1 CCU       0.147500
     12 H3           1.5470    -0.9250     0.5290 ha         1 CCU       0.247000
     13 H4           1.7700     0.9430     0.8350 ha         1 CCU       0.247000
     14 H5           3.7230    -0.6180     0.5580 ha         1 CCU       0.147500
@<TRIPOS>BOND
     1     1     2 2
     2     1     8 1
     3     1    11 1
     4     2     3 1
     5     2    12 1
     6     3     7 2
     7     3    13 1
     8     4     5 1
     9     4     6 1
    10     4     7 1
    11     7    14 1
    12     8     9 1
    13     8    10 1
@<TRIPOS>SUBSTRUCTURE
     1 CCU         1 TEMP              0 ****  ****    0 ROOT
