@<TRIPOS>MOLECULE
CCV
   29    29     1     0     0
SMALL
bcc


@<TRIPOS>ATOM
      1 N1         -0.0900   -0.0100    0.0100 n         1 CCV     -0.466100
      2 O1          1.8700    0.0420   -1.2020 o         1 CCV     -0.645500
      3 O2          2.1820    0.1520    3.3760 o         1 CCV     -0.616500
      4 N2          2.0520    0.1150    1.1060 n         1 CCV     -0.584500
      5 C1          1.3130    0.0480   -0.0830 c         1 CCV      0.803500
      6 C2          1.4460    0.0990    2.3740 c         1 CCV      0.717700
      7 C3         -0.0260    0.0190    2.4100 cc        1 CCV     -0.264400
      8 C4         -0.6620    0.0010    3.7440 c3        1 CCV     -0.035900
      9 C5         -0.7370   -0.0300    1.2390 cd        1 CCV      0.103400
     10 C11        -2.2400   -0.0800    1.2180 c3        1 CCV     -0.051200
     11 C12        -2.7740   -1.4980    1.0870 c3        1 CCV     -0.064700
     12 C13        -4.3000   -1.4530    1.1820 c3        1 CCV      0.126400
     13 C14        -2.3510   -2.1820   -0.2100 c3        1 CCV      0.126400
     14 O3         -4.7470   -2.7910    1.3370 oh        1 CCV     -0.614800
     15 O4         -2.4620   -1.2500   -1.2780 oh        1 CCV     -0.614800
     16 H1         -0.6160   -0.1050   -0.8350 hn        1 CCV      0.369500
     17 H2          3.0440    0.1700    1.0280 hn        1 CCV      0.352500
     18 H43        -1.2200    0.9540    3.9250 hc        1 CCV      0.051367
     19 H42        -1.3810   -0.8520    3.8260 hc        1 CCV      0.051367
     20 H41         0.1120   -0.1090    4.5450 hc        1 CCV      0.051367
     21 H112       -2.6230    0.3740    2.1720 hc        1 CCV      0.075700
     22 H111       -2.6380    0.5390    0.3670 hc        1 CCV      0.075700
     23 H12        -2.3850   -2.1280    1.9370 hc        1 CCV      0.080700
     24 H132       -4.6200   -0.8420    2.0680 h1        1 CCV      0.038700
     25 H131       -4.7300   -1.0070    0.2450 h1        1 CCV      0.038700
     26 H142       -1.2840   -2.5280   -0.1400 h1        1 CCV      0.038700
     27 H141       -3.0140   -3.0710   -0.3920 h1        1 CCV      0.038700
     28 H3         -5.7100   -2.7570    1.3720 ho        1 CCV      0.409500
     29 H4         -2.4530   -1.7600   -2.0950 ho        1 CCV      0.409500
@<TRIPOS>BOND
     1    1    5 1
     2    1    9 1
     3    1   16 1
     4    2    5 2
     5    3    6 2
     6    4    5 1
     7    4    6 1
     8    4   17 1
     9    6    7 1
    10    7    8 1
    11    7    9 2
    12    8   18 1
    13    8   19 1
    14    8   20 1
    15    9   10 1
    16   10   11 1
    17   10   21 1
    18   10   22 1
    19   11   12 1
    20   11   13 1
    21   11   23 1
    22   12   14 1
    23   12   24 1
    24   12   25 1
    25   13   15 1
    26   13   26 1
    27   13   27 1
    28   14   28 1
    29   15   29 1
@<TRIPOS>SUBSTRUCTURE
     1 CCV         1 TEMP              0 ****  ****    0 ROOT
