@<TRIPOS>MOLECULE
molecule
   34    33     1     0     0
SMALL
bcc


@<TRIPOS>ATOM
      1 OA1          0.0000     0.0000     0.0000 o          1 CCW      -0.753300
      2 C            1.3420     0.0000     0.0000 c          1 CCW       0.863600
      3 OA2          1.9470     0.0020    -1.0460 o          1 CCW      -0.753300
      4 CA           2.0950     0.0000     1.3060 c3         1 CCW      -0.016500
      5 N            3.4680    -0.4730     1.0790 nz         1 CCW      -0.797600
      6 CB           2.1320     1.4190     1.8740 c3         1 CCW      -0.088400
      7 CG           2.7870     1.3980     3.2570 c3         1 CCW      -0.097400
      8 CD           2.8230     2.8190     3.8260 c3         1 CCW       0.114800
      9 NE           3.3420     2.7830     5.1950 n2         1 CCW      -0.502900
     10 C1           4.4630     3.3630     5.4770 c2         1 CCW       0.433200
     11 NH1          5.0050     3.2340     6.7290 nz         1 CCW      -0.762600
     12 C2           5.1720     4.1800     4.4290 c3         1 CCW      -0.307900
     13 S3           6.6170     4.9920     5.1700 s6         1 CCW       1.040000
     14 O6           6.1690     5.8540     6.2080 o          1 CCW      -0.599300
     15 O5           7.5910     4.0000     5.4630 o          1 CCW      -0.599300
     16 C4           7.2220     6.0080     3.7950 c3         1 CCW      -0.172300
     17 HA           1.5990    -0.6580     2.0090 hx         1 CCW       0.110700
     18 HN1          3.7570    -1.0410     1.8500 hn         1 CCW       0.440800
     19 HN2          4.0820     0.3130     0.9940 hn         1 CCW       0.440800
     20 HB1C         1.1210     1.8000     1.9590 hc         1 CCW       0.093200
     21 HB2C         2.7040     2.0580     1.2130 hc         1 CCW       0.093200
     22 HG1C         2.2140     0.7590     3.9180 hc         1 CCW       0.048700
     23 HG2C         3.7970     1.0170     3.1720 hc         1 CCW       0.048700
     24 HD1C         1.8220     3.2320     3.8300 h1         1 CCW       0.087700
     25 HD2C         3.4670     3.4370     3.2120 h1         1 CCW       0.087700
     26 HH11         4.4630     2.5830     7.2620 hn         1 CCW       0.485467
     27 HH12         5.0040     4.1240     7.1870 hn         1 CCW       0.485467
     28 H21C         5.4960     3.5330     3.6240 h1         1 CCW       0.143700
     29 H22C         4.4970     4.9320     4.0390 h1         1 CCW       0.143700
     30 H41C         6.4550     6.7150     3.5040 h1         1 CCW       0.122367
     31 H42C         8.1090     6.5460     4.1070 h1         1 CCW       0.122367
     32 H43C         7.4640     5.3700     2.9540 h1         1 CCW       0.122367
     33 HN3          3.4980    -1.0190     0.2400 hn         1 CCW       0.440800
     34 HH13         5.9470     2.9030     6.6520 hn         1 CCW       0.485467
@<TRIPOS>BOND
     1     1     2 1
     2     2     3 1
     3     2     4 1
     4     4     5 1
     5     4     6 1
     6     6     7 1
     7     7     8 1
     8     8     9 1
     9     9    10 2
    10    10    11 1
    11    10    12 1
    12    12    13 1
    13    13    14 2
    14    13    15 2
    15    13    16 1
    16     4    17 1
    17     5    18 1
    18     5    19 1
    19     6    20 1
    20     6    21 1
    21     7    22 1
    22     7    23 1
    23     8    24 1
    24     8    25 1
    25    11    26 1
    26    11    27 1
    27    12    28 1
    28    12    29 1
    29    16    30 1
    30    16    31 1
    31    16    32 1
    32    33     5 1
    33    34    11 1
@<TRIPOS>SUBSTRUCTURE
     1 CCW         1 TEMP              0 ****  ****    0 ROOT
