@<TRIPOS>MOLECULE
CCW
   34    33     1     0     0
SMALL
bcc


@<TRIPOS>ATOM
      1 OA1          0.0000     0.0000     0.0000 o          1 CCW      -0.795800
      2 C            1.3420     0.0000     0.0000 c          1 CCW       0.947600
      3 OA2          1.9470     0.0020    -1.0460 o          1 CCW      -0.795800
      4 CA           2.0950     0.0000     1.3060 c3         1 CCW      -0.202500
      5 N            3.4680    -0.4730     1.0790 nz         1 CCW       0.074400
      6 CB           2.1320     1.4190     1.8740 c3         1 CCW      -0.015400
      7 CG           2.7870     1.3980     3.2570 c3         1 CCW      -0.039400
      8 CD           2.8230     2.8190     3.8260 c3         1 CCW       0.128800
      9 NE           3.3420     2.7830     5.1950 n2         1 CCW      -0.353900
     10 C1           4.4630     3.3630     5.4770 c2         1 CCW       0.159200
     11 NH1          5.0050     3.2340     6.7290 nz         1 CCW       0.132400
     12 C2           5.1720     4.1800     4.4290 c3         1 CCW      -0.102900
     13 S3           6.6170     4.9920     5.1700 s6         1 CCW       0.770000
     14 O6           6.1690     5.8540     6.2080 o          1 CCW      -0.575800
     15 O5           7.5910     4.0000     5.4630 o          1 CCW      -0.575800
     16 C4           7.2220     6.0080     3.7950 c3         1 CCW       0.070700
     17 HA           1.5990    -0.6580     2.0090 hx         1 CCW       0.092700
     18 HN1          3.4760    -1.1190     0.3140 hn         1 CCW       0.212467
     19 HN2          4.0570     0.3060     0.8630 hn         1 CCW       0.212467
     20 HB1C         2.7040     2.0580     1.2130 hc         1 CCW       0.058700
     21 HB2C         1.1210     1.8000     1.9590 hc         1 CCW       0.058700
     22 HG1C         2.2140     0.7590     3.9180 hc         1 CCW       0.016700
     23 HG2C         3.7970     1.0170     3.1720 hc         1 CCW       0.016700
     24 HD1C         3.4660     3.4370     3.2120 h1         1 CCW       0.052200
     25 HD2C         1.8220     3.2320     3.8300 h1         1 CCW       0.052200
     26 HH11         4.4680     2.5770     7.2590 hn         1 CCW       0.245133
     27 HH12         5.9490     2.9080     6.6520 hn         1 CCW       0.245133
     28 H21C         5.4960     3.5330     3.6240 h1         1 CCW       0.107700
     29 H22C         4.4970     4.9320     4.0390 h1         1 CCW       0.107700
     30 H41C         7.4630     5.3700     2.9540 h1         1 CCW       0.078367
     31 H42C         6.4550     6.7150     3.5040 h1         1 CCW       0.078367
     32 H43C         8.1090     6.5460     4.1070 h1         1 CCW       0.078367
     33 HN3          3.8040    -0.9290     1.9040 hn         1 CCW       0.212467
     34 HH13         4.9980     4.1220     7.1890 hn         1 CCW       0.245133
@<TRIPOS>BOND
     1     1     2 1   
     2     2     3 1   
     3     2     4 1   
     4     4     5 1   
     5     4     6 1   
     6     4    17 1   
     7     5    18 1   
     8     5    19 1   
     9     5    33 1   
    10     6     7 1   
    11     6    20 1   
    12     6    21 1   
    13     7     8 1   
    14     7    22 1   
    15     7    23 1   
    16     8     9 1   
    17     8    24 1   
    18     8    25 1   
    19     9    10 2   
    20    10    11 1   
    21    10    12 1   
    22    11    26 1   
    23    11    27 1   
    24    11    34 1   
    25    12    13 1   
    26    12    28 1   
    27    12    29 1   
    28    13    14 2   
    29    13    15 2   
    30    13    16 1   
    31    16    30 1   
    32    16    31 1   
    33    16    32 1   
@<TRIPOS>SUBSTRUCTURE
     1 CCW         1 TEMP              0 ****  ****    0 ROOT
