@<TRIPOS>MOLECULE
CCX
   64    67     1     0     0
SMALL
bcc


@<TRIPOS>ATOM
      1 C1         -1.9260   -0.2090   -1.3370 ca        1 CCX     -0.090000
      2 C2         -1.2200   -0.8800   -0.2620 ca        1 CCX      0.029000
      3 C3         -3.2980   -0.3870   -1.4740 ca        1 CCX     -0.030000
      4 C4         -1.9040   -1.7080    0.6460 ca        1 CCX     -0.141000
      5 C5         -3.9640   -1.2070   -0.5590 ca        1 CCX     -0.085000
      6 C6         -3.2700   -1.8600    0.4860 ca        1 CCX     -0.072000
      7 C7         -0.9330    0.5520   -2.0700 c2        1 CCX     -0.133000
      8 C8          0.2910    0.3260   -1.4420 c2        1 CCX     -0.064000
      9 N9          0.1250   -0.5350   -0.3510 na        1 CCX     -0.203000
     10 C10        -1.1730    1.3800   -3.2610 c3        1 CCX     -0.095000
     11 C11        -5.3670   -1.3780   -0.6830 c1        1 CCX     -0.014000
     12 N12        -6.5190   -1.4990   -0.7970 n1        1 CCX     -0.165000
     13 C13        -2.0580    2.5770   -2.9600 c3        1 CCX     -0.153000
     14 C14        -2.4140    3.3190   -4.2290 c3        1 CCX     -0.157000
     15 C15        -3.2810    4.5480   -3.9540 c3        1 CCX     -0.067000
     16 C16        -4.6670    5.3460   -1.2780 c3        1 CCX     -0.214000
     17 C17        -7.8700    3.1960   -4.6240 c1        1 CCX     -0.358000
     18 C18        -5.2260    5.2890   -2.6900 c3        1 CCX     -0.065000
     19 C19        -6.6470    2.9910   -4.1810 c2        1 CCX     -0.140000
     20 N20        -4.6380    4.2400   -3.5180 n3        1 CCX     -0.274000
     21 C21        -5.5080    3.8650   -4.6250 c3        1 CCX     -0.018000
     22 C24       -10.0370    0.2390   -3.9720 ca        1 CCX     -0.189000
     23 C25       -11.4340   -2.1370   -4.8450 ca        1 CCX      0.069000
     24 C26       -10.6690   -2.1790   -3.7030 ca        1 CCX     -0.110000
     25 C27       -11.5260   -0.9160   -5.5580 ca        1 CCX     -0.172000
     26 C28        -9.9650   -0.9830   -3.2350 ca        1 CCX      0.110000
     27 C29       -10.8630    0.2130   -5.1450 ca        1 CCX     -0.028000
     28 C30       -10.3490   -3.2260   -2.7440 c2        1 CCX     -0.038000
     29 C31        -9.5120   -2.6660   -1.7820 c2        1 CCX      0.005000
     30 N32        -9.2970   -1.3090   -2.0800 na        1 CCX     -0.146000
     31 C33       -10.8070   -4.5500   -2.7970 c1        1 CCX     -0.100000
     32 N34       -11.1880   -5.6490   -2.8430 n1        1 CCX      0.028000
     33 O35        -8.7280    1.3960   -2.4080 oh        1 CCX     -0.204000
     34 H3         -3.8410    0.1140   -2.2890 ha        1 CCX      0.140000
     35 H4         -1.3710   -2.2180    1.4590 ha        1 CCX      0.150000
     36 H6         -3.8310   -2.5010    1.1840 ha        1 CCX      0.145000
     37 H8          1.2800    0.7170   -1.6930 h4        1 CCX      0.179000
     38 HN9         0.8400   -0.8530    0.2480 hn        1 CCX      0.261000
     39 H10        -0.1940    1.7370   -3.6800 hc        1 CCX      0.089000
     40 H10A       -1.6630    0.7470   -4.0520 hc        1 CCX      0.089000
     41 H13        -2.9930    2.2330   -2.4450 hc        1 CCX      0.088000
     42 H13A       -1.5280    3.2680   -2.2530 hc        1 CCX      0.088000
     43 H14        -1.4750    3.6780   -4.7290 hc        1 CCX      0.083000
     44 H14A       -2.9250    2.6230   -4.9440 hc        1 CCX      0.083000
     45 H15        -2.7790    5.1510   -3.1450 h1        1 CCX      0.082000
     46 H15A       -3.2920    5.1850   -4.8880 h1        1 CCX      0.082000
     47 H16        -5.2600    6.0900   -0.6910 hc        1 CCX      0.082667
     48 H16A       -3.5980    5.6670   -1.2720 hc        1 CCX      0.082667
     49 H17        -4.7370    4.3530   -0.7740 hc        1 CCX      0.082667
     50 H18        -6.3330    5.0880   -2.6210 h1        1 CCX      0.067500
     51 H18A       -5.1030    6.3060   -3.1690 h1        1 CCX      0.067500
     52 H19        -8.2800    2.2480   -2.2200 ho        1 CCX      0.287000
     53 H19A       -6.3730    2.1690   -3.4910 ha        1 CCX      0.124000
     54 H21        -4.9100    3.2630   -5.3700 h1        1 CCX      0.098500
     55 H21A       -5.9150    4.7690   -5.1680 h1        1 CCX      0.098500
     56 HN22       -9.7650    3.3560   -4.1730 hn        1 CCX      0.257500
     57 H25       -11.9710   -3.0310   -5.2080 ha        1 CCX      0.182000
     58 H27       -12.1530   -0.8850   -6.4660 ha        1 CCX      0.174000
     59 H29       -10.9970    1.1340   -5.7350 ha        1 CCX      0.138000
     60 H31        -9.0360   -3.1170   -0.9020 h4        1 CCX      0.221000
     61 HN32       -8.7170   -0.6990   -1.5490 hn        1 CCX      0.301000
     62 H222       -9.4110    2.3440   -5.4630 hn        1 CCX      0.257500
     63 N22        -9.1260    2.6220   -4.5120 n4        1 CCX      0.091000
     64 C23        -9.3700    1.4180   -3.5890 c2        1 CCX      0.113000
@<TRIPOS>BOND
     1    1    2 1   
     2    1    3 1   
     3    1    7 1   
     4    2    4 1   
     5    2    9 1   
     6    3    5 1   
     7    3   34 1   
     8    4    6 1   
     9    4   35 1   
    10    5    6 1   
    11    5   11 1   
    12    6   36 1   
    13    7    8 1   
    14    7   10 1   
    15    8    9 1   
    16    8   37 1   
    17    9   38 1   
    18   10   13 1   
    19   10   39 1   
    20   10   40 1   
    21   11   12 1   
    22   13   14 1   
    23   13   41 1   
    24   13   42 1   
    25   14   15 1   
    26   14   43 1   
    27   14   44 1   
    28   15   20 1   
    29   15   45 1   
    30   15   46 1   
    31   16   18 1   
    32   16   47 1   
    33   16   48 1   
    34   16   49 1   
    35   17   19 1   
    36   17   63 1   
    37   18   20 1   
    38   18   50 1   
    39   18   51 1   
    40   19   21 1   
    41   19   53 1   
    42   20   21 1   
    43   21   54 1   
    44   21   55 1   
    45   22   26 1   
    46   22   27 1   
    47   22   64 1   
    48   23   24 1   
    49   23   25 1   
    50   23   57 1   
    51   24   26 1   
    52   24   28 1   
    53   25   27 1   
    54   25   58 1   
    55   26   30 1   
    56   27   59 1   
    57   28   29 1   
    58   28   31 1   
    59   29   30 1   
    60   29   60 1   
    61   30   61 1   
    62   31   32 1   
    63   33   52 1   
    64   33   64 1   
    65   56   63 1   
    66   62   63 1   
    67   63   64 1   
@<TRIPOS>SUBSTRUCTURE
     1 CCX         1 TEMP              0 ****  ****    0 ROOT
