@<TRIPOS>MOLECULE
molecule
   63    67     1     0     0
SMALL
bcc


@<TRIPOS>ATOM
      1 C1           0.0000     0.0000     0.0000 ca         1 CCX      -0.131800
      2 C2           1.4090     0.0000     0.0000 ca         1 CCX      -0.029200
      3 C3          -0.6970     0.0000     1.2070 ca         1 CCX      -0.039000
      4 C4           2.0980     0.0000     1.2120 ca         1 CCX      -0.152000
      5 C5           0.0120     0.0010     2.4040 ca         1 CCX      -0.041000
      6 C6           1.4140    -0.0010     2.3910 ca         1 CCX      -0.079000
      7 C7          -0.4050    -0.0060    -1.4080 cc         1 CCX      -0.110400
      8 C8           0.7210    -0.0090    -2.1390 cd         1 CCX      -0.087100
      9 N9           1.8130    -0.0010    -1.3140 na         1 CCX      -0.178400
     10 C10         -1.8170    -0.0080    -1.9350 c3         1 CCX      -0.252200
     11 C11         -0.6910     0.0020     3.6520 cg         1 CCX       0.250800
     12 N12         -1.2530     0.0220     4.6390 n1         1 CCX      -0.384800
     13 C13         -2.3380     1.4290    -2.0030 c3         1 CCX      -0.220400
     14 C14         -3.7720     1.4270    -2.5380 c3         1 CCX      -0.403400
     15 C15         -4.2930     2.8640    -2.6060 c3         1 CCX       0.240800
     16 C16         -7.7580     4.1120    -3.3860 c3         1 CCX      -0.299900
     17 C17         -7.8560     3.6360    -4.8380 c3         1 CCX       0.224700
     18 C18         -6.2850     4.1870    -2.9780 c3         1 CCX      -0.299200
     19 C19         -7.1640     2.2760    -4.9690 c3         1 CCX      -0.299900
     20 N20         -5.6680     2.8620    -3.1200 n3         1 CCX      -0.323600
     21 C21         -5.7090     2.4050    -4.5150 c3         1 CCX      -0.299200
     22 C24        -10.7170     2.5220    -6.9720 ca         1 CCX      -0.111600
     23 C25        -11.7560     0.9610    -8.8250 ca         1 CCX      -0.073000
     24 C26        -12.2460     2.1490    -8.9300 ca         1 CCX      -0.020800
     25 C27        -10.8730     0.1730    -8.0960 ca         1 CCX      -0.106000
     26 C28        -11.6900     3.1090    -7.8880 ca         1 CCX      -0.077200
     27 C29        -10.3560     1.2600    -7.0500 ca         1 CCX      -0.191000
     28 C30        -13.0530     2.9970    -9.5460 cc         1 CCX       0.053100
     29 C31        -13.1250     4.3080    -9.1060 cd         1 CCX      -0.059100
     30 N32        -12.2480     4.4700    -8.0050 na         1 CCX      -0.159400
     31 C33        -13.9840     2.4720   -10.8250 cg         1 CCX       0.163500
     32 N34        -14.6130     1.7720   -11.7470 n1         1 CCX      -0.384800
     33 O35         -8.2180     1.9970    -6.9530 o          1 CCX      -0.546100
     34 H3          -1.7520     0.0380     0.9630 ha         1 CCX       0.146000
     35 H4           3.1760     0.0830     1.2830 ha         1 CCX       0.132000
     36 H6           2.0100    -0.1090     3.2890 ha         1 CCX       0.141000
     37 H8           0.7490    -0.2670    -3.1900 h4         1 CCX       0.173000
     38 HN9          2.7790    -0.1360    -1.5370 hn         1 CCX       0.295700
     39 H10         -2.2270     0.3710    -1.0070 hc         1 CCX       0.122200
     40 H10A        -2.0350    -1.0520    -1.7480 hc         1 CCX       0.122200
     41 H13         -3.3590     1.6860    -2.2590 hc         1 CCX       0.146200
     42 H13A        -1.8630     1.9630    -2.8170 hc         1 CCX       0.146200
     43 H14         -3.9160     0.3530    -2.5730 hc         1 CCX       0.185200
     44 H14A        -4.5220     1.9460    -1.9540 hc         1 CCX       0.185200
     45 H15         -4.6800     2.6830    -1.6100 h1         1 CCX       0.062700
     46 H15A        -3.6020     3.5680    -2.1580 h1         1 CCX       0.062700
     47 H16         -8.3190     4.9410    -2.9720 hc         1 CCX       0.166450
     48 H16A        -6.7310     3.9130    -3.1040 hc         1 CCX       0.166450
     49 H17         -7.3660     4.3540    -5.4860 h1         1 CCX       0.071700
     50 H18         -6.3240     4.7830    -2.0740 h1         1 CCX       0.099200
     51 H18A        -6.2580     3.1040    -2.9650 h1         1 CCX       0.099200
     52 H19         -7.0950     1.7910    -5.9350 hc         1 CCX       0.166450
     53 H19A        -6.1310     2.2220    -4.6460 hc         1 CCX       0.166450
     54 H21         -5.2840     1.4350    -4.7440 h1         1 CCX       0.099200
     55 H21A        -5.5850     2.1530    -3.4690 h1         1 CCX       0.099200
     56 HN22       -10.1510     3.7450    -4.8180 hn         1 CCX       0.319500
     57 H25        -11.9760     0.5670    -9.8100 ha         1 CCX       0.108000
     58 H27        -10.2310    -0.6900    -7.9690 ha         1 CCX       0.212000
     59 H29         -9.5830     0.8020    -6.4450 ha         1 CCX       0.206000
     60 H31        -13.8930     4.9660    -9.4950 h4         1 CCX       0.198000
     61 HN32       -11.8540     5.1710    -7.4090 hn         1 CCX       0.345700
     62 N22         -9.2650     3.5070    -5.2170 ns         1 CCX      -0.733900
     63 C23         -9.3600     2.5750    -6.7210 c          1 CCX       0.716700
@<TRIPOS>BOND
     1     1     2 ar
     2     1     3 ar
     3     1     7 1
     4     2     4 ar
     5     2     9 1
     6     3     5 ar
     7     4     6 ar
     8     5     6 ar
     9     5    11 1
    10     7     8 2
    11     7    10 1
    12     8     9 1
    13    10    13 1
    14    11    12 3
    15    13    14 1
    16    14    15 1
    17    15    20 1
    18    16    17 1
    19    16    18 1
    20    17    19 1
    21    17    62 1
    22    18    20 1
    23    19    21 1
    24    20    21 1
    25    62    63 1
    26    63    22 1
    27    63    33 2
    28    22    26 ar
    29    22    27 ar
    30    23    24 ar
    31    23    25 ar
    32    24    26 ar
    33    24    28 1
    34    25    27 ar
    35    26    30 1
    36    28    29 2
    37    28    31 1
    38    29    30 1
    39    31    32 3
    40     3    34 1
    41     4    35 1
    42     6    36 1
    43     8    37 1
    44     9    38 1
    45    10    39 1
    46    10    40 1
    47    13    41 1
    48    13    42 1
    49    14    43 1
    50    14    44 1
    51    15    45 1
    52    15    46 1
    53    16    47 1
    54    16    48 1
    55    17    49 1
    56    18    50 1
    57    18    51 1
    58    19    52 1
    59    19    53 1
    60    21    54 1
    61    21    55 1
    62    62    56 1
    63    23    57 1
    64    25    58 1
    65    27    59 1
    66    29    60 1
    67    30    61 1
@<TRIPOS>SUBSTRUCTURE
     1 CCX         1 TEMP              0 ****  ****    0 ROOT
