@<TRIPOS>MOLECULE
molecule
   35    36     1     0     0
SMALL
bcc


@<TRIPOS>ATOM
      1 P            0.0000     0.0000     0.0000 p5         1 CCZ       1.129600
      2 N1           3.9520    -5.0010     3.5790 n2         1 CCZ      -0.721100
      3 C2           3.2470    -3.6540     1.7060 ca         1 CCZ      -0.239900
      4 N2           3.9740    -6.0110     1.4880 nz         1 CCZ      -0.800600
      5 C3           3.0150    -3.5660     0.3340 ca         1 CCZ      -0.082500
      6 C4           2.5550    -2.3840    -0.2110 ca         1 CCZ      -0.105500
      7 C5           2.3250    -1.2880     0.6020 ca         1 CCZ       0.070700
      8 C6           2.5550    -1.3700     1.9630 ca         1 CCZ      -0.105500
      9 C7           3.0090    -2.5480     2.5200 ca         1 CCZ      -0.082500
     10 C8           1.8230     0.0000     0.0000 c3         1 CCZ      -0.222300
     11 C01         -1.8860     1.3550    -0.9090 ca         1 CCZ       0.172100
     12 C02         -2.4780     0.8020    -2.0360 ca         1 CCZ      -0.135000
     13 C03         -3.8510     0.8440    -2.1840 ca         1 CCZ      -0.123000
     14 C04         -4.6350     1.4370    -1.2120 ca         1 CCZ      -0.155000
     15 C05         -4.0480     1.9880    -0.0890 ca         1 CCZ      -0.123000
     16 C06         -2.6760     1.9430     0.0680 ca         1 CCZ      -0.135000
     17 OP1         -0.5370     0.0000     1.5170 o          1 CCZ      -0.782000
     18 OP2         -0.5360     1.3140    -0.7600 os         1 CCZ      -0.481500
     19 OP3         -0.4930    -1.2090    -0.6980 o          1 CCZ      -0.782000
     20 HN1          4.2850    -5.8560     3.9790 hn         1 CCZ       0.411400
     21 HN2          3.1250    -6.2760     1.0300 hn         1 CCZ       0.456467
     22 HN2A         4.3290    -6.7890     2.0090 hn         1 CCZ       0.456467
     23 H3           3.1950    -4.4230    -0.3030 ha         1 CCZ       0.120000
     24 H4           2.3740    -2.3140    -1.2770 ha         1 CCZ       0.168000
     25 H6           2.3710    -0.5090     2.5950 ha         1 CCZ       0.168000
     26 H7           3.1880    -2.6100     3.5870 ha         1 CCZ       0.120000
     27 H8           2.1840     0.8370     0.5850 hc         1 CCZ       0.073200
     28 H8A          2.1840     0.0880    -1.0180 hc         1 CCZ       0.073200
     29 H02         -1.8640     0.3400    -2.8000 ha         1 CCZ       0.143500
     30 H03         -4.3130     0.4130    -3.0640 ha         1 CCZ       0.119000
     31 H04         -5.7110     1.4710    -1.3320 ha         1 CCZ       0.114000
     32 H05         -4.6640     2.4490     0.6730 ha         1 CCZ       0.119000
     33 H06         -2.2170     2.3750     0.9490 ha         1 CCZ       0.143500
     34 H23          4.6620    -5.7700     0.8030 hn         1 CCZ       0.456467
     35 C1           3.7400    -4.9200     2.2960 ce         1 CCZ       0.562800
@<TRIPOS>BOND
     1    18     1 1
     2    10     1 1
     3     1    19 1
     4     1    17 1
     5     3    35 1
     6     2    35 2
     7    35     4 1
     8     2    20 1
     9     5     3 ar
    10     3     9 ar
    11     4    21 1
    12     4    22 1
    13     6     5 ar
    14     5    23 1
    15     6     7 ar
    16     6    24 1
    17    10     7 1
    18     7     8 ar
    19     8     9 ar
    20     8    25 1
    21     9    26 1
    22    10    27 1
    23    10    28 1
    24    12    11 ar
    25    11    18 1
    26    11    16 ar
    27    13    12 ar
    28    12    29 1
    29    13    14 ar
    30    13    30 1
    31    14    15 ar
    32    14    31 1
    33    15    16 ar
    34    15    32 1
    35    16    33 1
    36    34     4 1
@<TRIPOS>SUBSTRUCTURE
     1 CCZ         1 TEMP              0 ****  ****    0 ROOT
