@<TRIPOS>MOLECULE
CCZ
   35    36     1     0     0
SMALL
bcc


@<TRIPOS>ATOM
      1 P            0.0000     0.0000     0.0000 p5         1 CCZ       0.652600
      2 N1           3.9520    -5.0010     3.5790 n2         1 CCZ      -0.577100
      3 C2           3.2470    -3.6540     1.7060 ca         1 CCZ      -0.300900
      4 N2           3.9740    -6.0110     1.4880 nz         1 CCZ       0.192400
      5 C3           3.0150    -3.5660     0.3340 ca         1 CCZ      -0.067500
      6 C4           2.5550    -2.3840    -0.2110 ca         1 CCZ      -0.081500
      7 C5           2.3250    -1.2880     0.6020 ca         1 CCZ       0.096700
      8 C6           2.5550    -1.3700     1.9630 ca         1 CCZ      -0.081500
      9 C7           3.0090    -2.5480     2.5200 ca         1 CCZ      -0.067500
     10 C8           1.8230     0.0000     0.0000 c3         1 CCZ      -0.013300
     11 C01         -1.8860     1.3550    -0.9090 ca         1 CCZ       0.240100
     12 C02         -2.4780     0.8020    -2.0360 ca         1 CCZ      -0.144500
     13 C03         -3.8510     0.8440    -2.1840 ca         1 CCZ      -0.090500
     14 C04         -4.6350     1.4370    -1.2120 ca         1 CCZ      -0.158000
     15 C05         -4.0480     1.9880    -0.0890 ca         1 CCZ      -0.090500
     16 C06         -2.6760     1.9430     0.0680 ca         1 CCZ      -0.144500
     17 OP1         -0.5370     0.0000     1.5170 o          1 CCZ      -0.625500
     18 OP2         -0.5360     1.3140    -0.7600 os         1 CCZ      -0.385500
     19 OP3         -0.4930    -1.2090    -0.6980 o          1 CCZ      -0.625500
     20 HN1          3.7820    -4.2090     4.1660 hn         1 CCZ       0.383400
     21 HN2          4.6650    -5.7770     0.8030 hn         1 CCZ       0.213467
     22 HN2A         3.1290    -6.2870     1.0300 hn         1 CCZ       0.213467
     23 H3           3.1950    -4.4230    -0.3030 ha         1 CCZ       0.079500
     24 H4           2.3740    -2.3140    -1.2770 ha         1 CCZ       0.135000
     25 H6           2.3710    -0.5090     2.5950 ha         1 CCZ       0.135000
     26 H7           3.1880    -2.6100     3.5870 ha         1 CCZ       0.079500
     27 H8           2.1840     0.8370     0.5850 hc         1 CCZ       0.040200
     28 H8A          2.1840     0.0880    -1.0180 hc         1 CCZ       0.040200
     29 H02         -1.8640     0.3400    -2.8000 ha         1 CCZ       0.114500
     30 H03         -4.3130     0.4130    -3.0640 ha         1 CCZ       0.087000
     31 H04         -5.7110     1.4710    -1.3320 ha         1 CCZ       0.089000
     32 H05         -4.6640     2.4490     0.6730 ha         1 CCZ       0.087000
     33 H06         -2.2170     2.3750     0.9490 ha         1 CCZ       0.114500
     34 H23          4.2980    -6.7830     2.0370 hn         1 CCZ       0.213467
     35 C1           3.7400    -4.9200     2.2960 ce         1 CCZ       0.245800
@<TRIPOS>BOND
     1     1    10 1   
     2     1    17 1   
     3     1    18 1   
     4     1    19 1   
     5     2    20 1   
     6     2    35 2   
     7     3     5 ar  
     8     3     9 ar  
     9     3    35 1   
    10     4    21 1   
    11     4    22 1   
    12     4    34 1   
    13     4    35 1   
    14     5     6 ar  
    15     5    23 1   
    16     6     7 ar  
    17     6    24 1   
    18     7     8 ar  
    19     7    10 1   
    20     8     9 ar  
    21     8    25 1   
    22     9    26 1   
    23    10    27 1   
    24    10    28 1   
    25    11    12 ar  
    26    11    16 ar  
    27    11    18 1   
    28    12    13 ar  
    29    12    29 1   
    30    13    14 ar  
    31    13    30 1   
    32    14    15 ar  
    33    14    31 1   
    34    15    16 ar  
    35    15    32 1   
    36    16    33 1   
@<TRIPOS>SUBSTRUCTURE
     1 CCZ         1 TEMP              0 ****  ****    0 ROOT
