@<TRIPOS>MOLECULE
molecule
   44    47     1     0     0
SMALL
bcc


@<TRIPOS>ATOM
      1 C1           0.0000     0.0000     0.0000 ca         1 CD2      -0.117000
      2 C2           1.3930     0.0000     0.0000 ca         1 CD2      -0.132000
      3 C3           2.0910     0.0000     1.1700 ca         1 CD2      -0.103000
      4 C4          -0.7030     0.0060     1.1650 ca         1 CD2      -0.169300
      5 C5          -0.0200     0.0070     2.3940 ca         1 CD2       0.420600
      6 C6           1.3970     0.0010     2.3920 ca         1 CD2      -0.162300
      7 C7           2.0840     0.0010     3.6190 ca         1 CD2      -0.038000
      8 C8           1.3320     0.0020     4.7850 cp         1 CD2      -0.273800
      9 C9          -0.0700     0.0030     4.7040 ca         1 CD2       0.442200
     10 N10         -0.6900     0.0130     3.5510 nb         1 CD2      -0.690000
     11 C11          2.0040     0.0010     6.1070 cp         1 CD2       0.475800
     12 N12          3.3310    -0.0000     6.1700 nb         1 CD2      -0.700000
     13 C13          3.9720     0.0010     7.3210 ca         1 CD2       0.424200
     14 C14          3.2850     0.0010     8.5190 ca         1 CD2      -0.240300
     15 C15          1.8870     0.0020     8.5040 ca         1 CD2      -0.053500
     16 C16          1.2390     0.0080     7.2680 ca         1 CD2      -0.229300
     17 C17          1.1130     0.0030     9.7700 cc         1 CD2       0.354800
     18 C18          1.6430     0.1070    11.0690 cc         1 CD2      -0.266300
     19 N19         -0.1970    -0.0880     9.8810 nd         1 CD2      -0.575800
     20 N20         -0.5520    -0.0580    11.1150 na         1 CD2       0.133400
     21 C21          0.5500     0.0630    11.9140 cd         1 CD2      -0.134900
     22 C22          0.5690     0.1360    13.3830 c          1 CD2       0.905200
     23 C23         -2.3110    -1.6010    11.8270 c3         1 CD2       0.068800
     24 C24         -1.9350    -0.1360    11.5940 c3         1 CD2       0.061300
     25 O25         -0.5860     0.0800    14.0750 o          1 CD2      -0.819800
     26 N26         -3.6970    -1.6800    12.3070 nz         1 CD2      -0.805600
     27 O27          1.6270     0.2470    13.9720 o          1 CD2      -0.819800
     28 H1          -0.5320    -0.0000    -0.9430 ha         1 CD2       0.131000
     29 H2           1.9280    -0.0050    -0.9420 ha         1 CD2       0.131000
     30 H3           3.1740     0.0000     1.1580 ha         1 CD2       0.136000
     31 H4          -1.7860     0.0060     1.1460 ha         1 CD2       0.146000
     32 H7           3.1670     0.0010     3.6530 ha         1 CD2       0.166000
     33 H9          -0.6520     0.0030     5.6180 h4         1 CD2       0.024100
     34 H13          5.0550    -0.0010     7.3270 h4         1 CD2       0.025100
     35 H14          3.8240    -0.0010     9.4590 ha         1 CD2       0.151000
     36 H16          0.1570     0.0090     7.2140 ha         1 CD2       0.149000
     37 H18          2.6860     0.1990    11.3480 ha         1 CD2       0.182000
     38 H23         -2.2190    -2.1500    10.8980 hx         1 CD2       0.124700
     39 H23A        -1.6470    -2.0310    12.5680 hx         1 CD2       0.124700
     40 H24         -2.5990     0.2930    10.8540 h1         1 CD2       0.097200
     41 H24A        -2.0270     0.4120    12.5240 h1         1 CD2       0.097200
     42 HN26        -3.7830    -1.1690    13.1630 hn         1 CD2       0.451800
     43 HN2A        -3.9410    -2.6380    12.4640 hn         1 CD2       0.451800
     44 H263        -4.3100    -1.2880    11.6210 hn         1 CD2       0.451800
@<TRIPOS>BOND
     1     2     1 ar
     2     4     1 ar
     3     1    28 1
     4     3     2 ar
     5     2    29 1
     6     6     3 ar
     7     3    30 1
     8     5     4 ar
     9     4    31 1
    10     6     5 ar
    11    10     5 ar
    12     7     6 ar
    13     8     7 ar
    14     7    32 1
    15    11     8 1
    16     8     9 ar
    17     9    10 ar
    18     9    33 1
    19    16    11 ar
    20    12    11 ar
    21    13    12 ar
    22    14    13 ar
    23    13    34 1
    24    14    15 ar
    25    14    35 1
    26    17    15 1
    27    15    16 ar
    28    16    36 1
    29    18    17 1
    30    17    19 2
    31    21    18 2
    32    18    37 1
    33    20    19 1
    34    21    20 1
    35    20    24 1
    36    22    21 1
    37    27    22 1
    38    25    22 1
    39    24    23 1
    40    26    23 1
    41    23    38 1
    42    23    39 1
    43    24    40 1
    44    24    41 1
    45    26    42 1
    46    26    43 1
    47    44    26 1
@<TRIPOS>SUBSTRUCTURE
     1 CD2         1 TEMP              0 ****  ****    0 ROOT
