@<TRIPOS>MOLECULE
CD6
   39    38     1     0     0
SMALL
bcc


@<TRIPOS>ATOM
      1 CAA         0.1990    1.9470    0.8300 c2        1 CD6     -0.125000
      2 OAE         2.1030    4.1680    2.7870 o         1 CD6     -0.515000
      3 OAF         3.8530    0.8440    5.9020 o         1 CD6     -0.226000
      4 OAH         1.5600    4.9100    0.7270 o         1 CD6     -0.515000
      5 CAI         3.5650    5.9070    9.2030 c3        1 CD6     -0.017000
      6 CAJ         4.8510    5.3820    8.8510 c1        1 CD6     -0.174000
      7 CAK         2.4080    5.0590    8.8050 c2        1 CD6     -0.094000
      8 CAL         5.9380    4.9680    8.5720 c1        1 CD6     -0.200000
      9 CAM         2.4710    3.9610    8.1080 c1        1 CD6     -0.125000
     10 CAN         1.9960    0.4650    0.0040 c3        1 CD6     -0.221000
     11 CAP         2.3680    2.7960    5.9550 c3        1 CD6     -0.142000
     12 NAQ         3.7950    2.4250    1.2420 n2        1 CD6     -0.226000
     13 NAS         3.7400    2.1130    3.9460 n4        1 CD6     -0.126000
     14 SAU         3.3750   -0.2950    0.8320 ss        1 CD6      0.003000
     15 CAW         1.5050    1.6970    0.6660 c2        1 CD6     -0.165000
     16 CAX         2.0230    4.0720    1.5080 c2        1 CD6      0.389000
     17 CAY         3.3580    1.8280    5.3630 c2        1 CD6      0.271000
     18 CAZ         3.5670    5.9000    3.6390 c1        1 CD6      0.302000
     19 CBA         2.5370    2.6810    1.0470 c2        1 CD6     -0.001000
     20 CBB         2.5030    2.8480    7.4340 c2        1 CD6     -0.141000
     21 CBD         4.1980    1.1060    1.6160 c3        1 CD6     -0.134000
     22 CBE         3.9970    0.8780    3.1510 c3        1 CD6     -0.128000
     23 HAA        -0.5770    1.2350    0.5170 ha        1 CD6      0.135000
     24 HAAA       -0.1610    2.8890    1.2730 ha        1 CD6      0.135000
     25 HAL         6.9030    4.6040    8.3290 ha        1 CD6      0.224000
     26 HAM         2.6180    1.8730    7.9410 ha        1 CD6      0.158000
     27 HAN         2.3050    0.7070   -1.0460 h1        1 CD6      0.127000
     28 HANA        1.2040   -0.3250   -0.0420 h1        1 CD6      0.127000
     29 HAP         1.3380    2.4250    5.6810 hc        1 CD6      0.158500
     30 HAPA        2.4830    3.8200    5.4910 hc        1 CD6      0.158500
     31 HNAS        2.9740    2.7160    3.5060 hn        1 CD6      0.294000
     32 HAZ         4.9160    0.3790    3.5670 hx        1 CD6      0.140000
     33 HBD         3.1150    0.1900    3.3000 hx        1 CD6      0.140000
     34 HBE         5.2910    0.9970    1.3730 h2        1 CD6      0.150000
     35 HAI         3.5230    6.0580   10.3210 hc        1 CD6      0.116500
     36 HAJ         3.4360    6.9230    8.7250 hc        1 CD6      0.116500
     37 HAS2        4.5770    2.7130    3.9430 hn        1 CD6      0.294000
     38 OAG         4.0560    4.9410    4.1230 o         1 CD6     -0.314000
     39 HAK         1.4270    5.4380    9.1490 ha        1 CD6      0.151000
@<TRIPOS>BOND
     1    1   15 1   
     2    1   23 1   
     3    1   24 1   
     4    2   16 1   
     5    3   17 1   
     6    4   16 1   
     7    5    6 1   
     8    5    7 1   
     9    5   35 1   
    10    5   36 1   
    11    6    8 1   
    12    7    9 1   
    13    7   39 1   
    14    8   25 1   
    15    9   20 1   
    16   10   14 1   
    17   10   15 1   
    18   10   27 1   
    19   10   28 1   
    20   11   17 1   
    21   11   20 1   
    22   11   29 1   
    23   11   30 1   
    24   12   19 1   
    25   12   21 1   
    26   13   17 1   
    27   13   22 1   
    28   13   31 1   
    29   13   37 1   
    30   14   21 1   
    31   15   19 1   
    32   16   19 1   
    33   18   38 1   
    34   20   26 1   
    35   21   22 1   
    36   21   34 1   
    37   22   32 1   
    38   22   33 1   
@<TRIPOS>SUBSTRUCTURE
     1 CD6         1 TEMP              0 ****  ****    0 ROOT
