@<TRIPOS>MOLECULE
molecule
   38    39     1     0     0
SMALL
bcc


@<TRIPOS>ATOM
      1 CAA          0.0000     0.0000     0.0000 c2         1 CD6      -0.152000
      2 OAE         -0.3710     3.3740     2.4040 o          1 CD6      -0.807300
      3 OAF          3.9120     2.6380     5.9790 o          1 CD6      -0.621100
      4 OAH         -1.1710     2.0590     0.8070 o          1 CD6      -0.807300
      5 CAI          3.5720     5.0390     9.9170 ca         1 CD6      -0.138000
      6 CAJ          4.7690     5.1750     9.2370 ca         1 CD6      -0.133500
      7 CAK          2.3930     4.8750     9.2140 ca         1 CD6      -0.133500
      8 CAL          4.7860     5.1480     7.8550 ca         1 CD6      -0.108500
      9 CAM          2.4090     4.8540     7.8320 ca         1 CD6      -0.108500
     10 CAN          2.4700     0.0000     0.0000 c3         1 CD6       0.087900
     11 CAP          3.6240     4.9570     5.6460 c3         1 CD6      -0.112100
     12 NAQ          2.0680     2.1990     1.9860 n2         1 CD6      -0.597900
     13 NAS          3.8530     3.2690     3.8530 ns         1 CD6      -0.539900
     14 SAU          3.5370     0.0000     1.4770 ss         1 CD6      -0.461200
     15 CAW          1.1280     0.5560     0.4310 ce         1 CD6      -0.274800
     16 CAX         -0.2280     2.3920     1.4950 c          1 CD6       0.803300
     17 CAY          3.8070     3.5380     5.1730 c          1 CD6       0.676100
     18 CAZ          5.5000     1.5550     3.3660 c          1 CD6       0.557900
     19 CBA          1.0860     1.7160     1.3310 ce         1 CD6       0.478600
     20 CBB          3.6060     4.9850     7.1520 ca         1 CD6      -0.052300
     21 CBD          3.4490     1.7420     1.9850 c3         1 CD6       0.248600
     22 CBE          4.0310     1.8890     3.3930 c3         1 CD6       0.032700
     23 HAA         -0.9560     0.4020     0.3120 ha         1 CD6       0.141000
     24 HAAA         0.0370    -0.8560    -0.6630 ha         1 CD6       0.141000
     25 HAK          1.4560     4.7700     9.7470 ha         1 CD6       0.120500
     26 HAL          5.7230     5.2530     7.3230 ha         1 CD6       0.136000
     27 HAM          1.4850     4.7260     7.2820 ha         1 CD6       0.136000
     28 HAN          2.9020     0.6310    -0.7670 h1         1 CD6       0.063200
     29 HANA         2.3500    -1.0120    -0.3680 h1         1 CD6       0.063200
     30 HAP          4.4420     5.5670     5.2830 hc         1 CD6       0.071200
     31 HAPA         2.6870     5.3460     5.2660 hc         1 CD6       0.071200
     32 HNAS         3.8130     4.0170     3.1880 hn         1 CD6       0.326500
     33 HAZ          5.8240     0.5630     3.0720 h4         1 CD6       0.004200
     34 HBD          4.0230     2.3450     1.2910 h2         1 CD6       0.065700
     35 HBE          3.5190     1.2140     4.0680 h1         1 CD6       0.120700
     36 HAI          3.5600     5.0570    11.0000 ha         1 CD6       0.116000
     37 OAG          6.3150     2.3820     3.6970 o          1 CD6      -0.533100
     38 HAJ          5.6930     5.3030     9.7880 ha         1 CD6       0.120500
@<TRIPOS>BOND
     1    15     1 2
     2     1    23 1
     3     1    24 1
     4    16     2 1
     5     3    17 2
     6    18    37 2
     7     4    16 1
     8     6     5 ar
     9     5     7 ar
    10     5    36 1
    11     6     8 ar
    12     6    38 1
    13     7     9 ar
    14     7    25 1
    15     8    20 ar
    16     8    26 1
    17    20     9 ar
    18     9    27 1
    19    14    10 1
    20    10    15 1
    21    10    28 1
    22    10    29 1
    23    17    11 1
    24    20    11 1
    25    11    30 1
    26    11    31 1
    27    21    12 1
    28    12    19 2
    29    22    13 1
    30    13    17 1
    31    13    32 1
    32    14    21 1
    33    19    15 1
    34    19    16 1
    35    22    18 1
    36    18    33 1
    37    21    22 1
    38    21    34 1
    39    22    35 1
@<TRIPOS>SUBSTRUCTURE
     1 CD6         1 TEMP              0 ****  ****    0 ROOT
