@<TRIPOS>MOLECULE
CD7
   43    44     1     0     0
SMALL
bcc


@<TRIPOS>ATOM
      1 OAB          0.0000     0.0000     0.0000 o          1 CD7      -0.651100
      2 CAE          1.2130     0.0000     0.0000 c          1 CD7       0.620900
      3 N            1.8870     0.0000     1.1670 n          1 CD7      -0.179800
      4 CAL          1.1710     0.1120     2.4480 c3         1 CD7      -0.017300
      5 CAP          1.6920    -0.9770     3.3630 c2         1 CD7       0.334300
      6 NAA          0.8910    -1.7080     4.0410 n2         1 CD7      -0.625100
      7 CAH          3.1900    -1.1730     3.4500 c3         1 CD7      -0.052700
      8 CB           3.7470    -1.3350     2.0310 c3         1 CD7      -0.031400
      9 CA           3.3500    -0.1190     1.1880 c3         1 CD7      -0.021300
     10 C            3.8600    -0.3010    -0.2180 c          1 CD7       0.551100
     11 O            3.3380    -1.1130    -0.9530 o          1 CD7      -0.645100
     12 NAO          4.8970     0.4380    -0.6600 ns         1 CD7      -0.117500
     13 NAN          5.3710     0.2690    -1.9670 ns         1 CD7      -0.161500
     14 CAQ          6.4080     1.0080    -2.4090 c          1 CD7       0.595100
     15 OAC          6.9300     1.8200    -1.6740 o          1 CD7      -0.667100
     16 CAS          6.9190     0.8270    -3.8150 c3         1 CD7      -0.128700
     17 CAI          8.1050     1.7770    -4.0940 c3         1 CD7      -0.030400
     18 CAF          7.8920     2.2760    -5.5350 c3         1 CD7       0.137800
     19 NAM          6.6700     1.6170    -6.0450 n3         1 CD7      -0.231100
     20 CAK          5.8580     1.2850    -4.8470 c3         1 CD7       0.152800
     21 H1           1.7540     0.0460    -0.9370 h5         1 CD7       0.033200
     22 H2           1.3600     1.0830     2.8900 h1         1 CD7       0.041200
     23 H3           0.1080    -0.0230     2.2870 h1         1 CD7       0.041200
     24 H4          -0.0980    -1.5650     3.9720 hn         1 CD7       0.320400
     25 H5           3.4060    -2.0640     4.0270 hc         1 CD7       0.028700
     26 H6           3.6420    -0.3090     3.9210 hc         1 CD7       0.028700
     27 H7           3.3370    -2.2320     1.5830 hc         1 CD7       0.034700
     28 H8           4.8270    -1.4060     2.0740 hc         1 CD7       0.034700
     29 H9           3.7790     0.7760     1.6220 h1         1 CD7       0.027700
     30 H10          5.3370     1.0990    -0.0500 hn         1 CD7       0.213500
     31 H11          4.9640    -0.4260    -2.5610 hn         1 CD7       0.230500
     32 H12          7.2050    -0.2020    -3.9950 hc         1 CD7       0.052700
     33 H13          9.0420     1.2380    -4.0190 hc         1 CD7       0.025700
     34 H14          8.0880     2.6110    -3.4020 hc         1 CD7       0.025700
     35 H15          8.7410     2.0030    -6.1490 h1         1 CD7       0.023200
     36 H16          7.7580     3.3510    -5.5360 h1         1 CD7       0.023200
     37 O1           5.9350     2.5020    -6.9490 os         1 CD7      -0.376000
     38 H19          5.1670     0.4800    -5.0660 h1         1 CD7       0.026200
     39 H20          5.3320     2.1620    -4.4880 h1         1 CD7       0.026200
     40 S1           5.7700     1.9500    -8.3580 s6         1 CD7       1.328300
     41 O3           5.2240     3.0040    -9.1400 o          1 CD7      -0.673867
     42 O2           6.9910     1.2970    -8.6780 o          1 CD7      -0.673867
     43 O4           4.7050     0.8650    -8.2950 o          1 CD7      -0.673867
@<TRIPOS>BOND
     1     1     2 2   
     2     2     3 1   
     3     2    21 1   
     4     3     4 1   
     5     3     9 1   
     6     4     5 1   
     7     4    22 1   
     8     4    23 1   
     9     5     6 2   
    10     5     7 1   
    11     6    24 1   
    12     7     8 1   
    13     7    25 1   
    14     7    26 1   
    15     8     9 1   
    16     8    27 1   
    17     8    28 1   
    18     9    10 1   
    19     9    29 1   
    20    10    11 2   
    21    10    12 1   
    22    12    13 1   
    23    12    30 1   
    24    13    14 1   
    25    13    31 1   
    26    14    15 2   
    27    14    16 1   
    28    16    17 1   
    29    16    20 1   
    30    16    32 1   
    31    17    18 1   
    32    17    33 1   
    33    17    34 1   
    34    18    19 1   
    35    18    35 1   
    36    18    36 1   
    37    19    20 1   
    38    19    37 1   
    39    20    38 1   
    40    20    39 1   
    41    37    40 1   
    42    40    41 1   
    43    40    42 1   
    44    40    43 1   
@<TRIPOS>SUBSTRUCTURE
     1 CD7         1 TEMP              0 ****  ****    0 ROOT
