@<TRIPOS>MOLECULE
molecule
   43    44     1     0     0
SMALL
bcc


@<TRIPOS>ATOM
      1 OAB          0.0000     0.0000     0.0000 o          1 CD7      -0.605100
      2 CAE          1.2130     0.0000     0.0000 c          1 CD7       0.664900
      3 N            1.8870     0.0000     1.1670 n          1 CD7      -0.502800
      4 CAL          1.1710     0.1120     2.4480 c3         1 CD7       0.074700
      5 CAP          1.6920    -0.9770     3.3630 c2         1 CD7       0.414300
      6 NAA          0.8910    -1.7080     4.0410 n2         1 CD7      -0.778100
      7 CAH          3.1900    -1.1730     3.4500 c3         1 CD7      -0.180700
      8 CB           3.7470    -1.3350     2.0310 c3         1 CD7      -0.084400
      9 CA           3.3500    -0.1190     1.1880 c3         1 CD7       0.056700
     10 C            3.8600    -0.3010    -0.2180 c          1 CD7       0.640100
     11 O            3.3380    -1.1130    -0.9530 o          1 CD7      -0.606100
     12 NAO          4.8970     0.4380    -0.6600 ns         1 CD7      -0.420500
     13 NAN          5.3710     0.2690    -1.9670 ns         1 CD7      -0.436500
     14 CAQ          6.4080     1.0080    -2.4090 c          1 CD7       0.670100
     15 OAC          6.9300     1.8200    -1.6740 o          1 CD7      -0.627100
     16 CAS          6.9190     0.8270    -3.8150 c3         1 CD7      -0.152700
     17 CAI          8.1050     1.7770    -4.0940 c3         1 CD7      -0.083400
     18 CAF          7.8920     2.2760    -5.5350 c3         1 CD7       0.121800
     19 NAM          6.6700     1.6170    -6.0450 n3         1 CD7      -0.352100
     20 CAK          5.8580     1.2850    -4.8470 c3         1 CD7       0.133800
     21 H1           1.7540     0.0460    -0.9370 h5         1 CD7       0.069200
     22 H2           0.1080    -0.0230     2.2870 h1         1 CD7       0.082700
     23 H3           1.3600     1.0830     2.8900 h1         1 CD7       0.082700
     24 H4           1.2520    -2.4230     4.6400 hn         1 CD7       0.395400
     25 H5           3.6420    -0.3090     3.9210 hc         1 CD7       0.054700
     26 H6           3.4060    -2.0640     4.0270 hc         1 CD7       0.054700
     27 H7           4.8270    -1.4060     2.0740 hc         1 CD7       0.066700
     28 H8           3.3370    -2.2320     1.5830 hc         1 CD7       0.066700
     29 H9           3.7790     0.7760     1.6220 h1         1 CD7       0.054700
     30 H10          5.3370     1.0990    -0.0500 hn         1 CD7       0.362500
     31 H11          4.9640    -0.4260    -2.5610 hn         1 CD7       0.372500
     32 H12          7.2050    -0.2020    -3.9950 hc         1 CD7       0.085700
     33 H13          8.0880     2.6110    -3.4020 hc         1 CD7       0.058700
     34 H14          9.0420     1.2380    -4.0190 hc         1 CD7       0.058700
     35 H15          8.7410     2.0030    -6.1490 h1         1 CD7       0.067200
     36 H16          7.7580     3.3510    -5.5360 h1         1 CD7       0.067200
     37 O1           5.9350     2.5020    -6.9490 os         1 CD7      -0.460000
     38 H19          5.3320     2.1620    -4.4880 h1         1 CD7       0.070700
     39 H20          5.1670     0.4800    -5.0660 h1         1 CD7       0.070700
     40 S1           5.7700     1.9500    -8.3580 s6         1 CD7       1.571300
     41 O3           5.2240     3.0040    -9.1400 o          1 CD7      -0.733533
     42 O2           6.9910     1.2970    -8.6780 o          1 CD7      -0.733533
     43 O4           4.7050     0.8650    -8.2950 o          1 CD7      -0.733533
@<TRIPOS>BOND
     1    20    16 1
     2    20    19 1
     3    16    17 1
     4    16    14 1
     5    19    18 1
     6    17    18 1
     7    11    10 2
     8    14    15 2
     9    14    13 1
    10    13    12 1
    11    10    12 1
    12    10     9 1
    13     4     3 1
    14     4     5 1
    15     3     9 1
    16     3     2 1
    17     9     8 1
    18     2     1 2
    19     5     6 2
    20     5     7 1
    21     7     8 1
    22     2    21 1
    23     4    22 1
    24     4    23 1
    25     6    24 1
    26     7    25 1
    27     7    26 1
    28     8    27 1
    29     8    28 1
    30     9    29 1
    31    12    30 1
    32    13    31 1
    33    16    32 1
    34    17    33 1
    35    17    34 1
    36    18    35 1
    37    18    36 1
    38    19    37 1
    39    20    38 1
    40    20    39 1
    41    37    40 1
    42    40    41 1
    43    40    42 1
    44    40    43 1
@<TRIPOS>SUBSTRUCTURE
     1 CD7         1 TEMP              0 ****  ****    0 ROOT
