@<TRIPOS>MOLECULE
CD8
   39    37     1     0     0
SMALL
bcc


@<TRIPOS>ATOM
      1 CAA         0.4330    1.6660    3.1790 c2        1 CD8     -0.424000
      2 OAF         0.4160    2.9740    3.7800 os        1 CD8     -0.208000
      3 OAG         7.7980    3.8540    0.0460 o         1 CD8     -0.363000
      4 OAH         8.1170    1.4070    1.6590 o         1 CD8     -0.276000
      5 OAI         1.7360    4.7260    4.1060 o         1 CD8     -0.373000
      6 CAJ        -1.0680    6.7350    5.8060 c1        1 CD8     -0.058000
      7 CAK         6.4240    7.5200    2.8650 c2        1 CD8     -0.164000
      8 CAL        -1.2100    5.4150    5.3330 c2        1 CD8     -0.565000
      9 CAM         7.0190    6.7230    2.0320 c1        1 CD8     -0.122000
     10 CAN        -2.3220    4.7030    5.3620 c1        1 CD8      0.336000
     11 CAO         1.9710    0.8200    1.3610 c3        1 CD8     -0.216000
     12 NAQ         3.8390    3.0120    2.7930 n2        1 CD8     -0.151000
     13 NAS         6.4650    3.8920    1.9300 n         1 CD8     -0.292000
     14 OAT         0.1030   -1.4240    4.9980 o         1 CD8     -0.397000
     15 SAV         2.9960   -0.6320    1.2230 sh        1 CD8     -0.116000
     16 CAX         1.8610    1.3580    2.7660 c3        1 CD8     -0.109000
     17 CAY         1.6190    3.5820    3.6550 c2        1 CD8      0.305000
     18 CAZ         7.3010    4.4900    0.9980 c2        1 CD8      0.344000
     19 CBA         6.9510    1.5300    1.2900 c2        1 CD8      0.240000
     20 CBB         2.6190    2.6550    3.0020 c2        1 CD8     -0.023000
     21 CBC         7.6170    5.9320    1.1850 c2        1 CD8     -0.158000
     22 CBE         4.7770    2.1480    2.2200 c2        1 CD8     -0.137000
     23 CBF         6.0190    2.5700    1.8250 c2        1 CD8     -0.043000
     24 HAA         2.2710    0.5960    3.4920 hc        1 CD8      0.119000
     25 HAAA       -0.2930    1.6820    2.3440 h4        1 CD8      0.052000
     26 HAC        -1.1030   -0.0150    5.8090 h4        1 CD8      0.121500
     27 HACA        2.4220   -1.3990    2.1440 hs        1 CD8      0.073000
     28 HACB       -0.0200    0.6010    4.2650 h4        1 CD8      0.121500
     29 HAJ        -0.3240    4.8760    4.8790 ha        1 CD8      0.244000
     30 HAK         5.5170    8.0810    2.5950 ha        1 CD8      0.145500
     31 HAL        -0.0560    7.1650    5.7040 ha        1 CD8      0.036000
     32 HAM         6.7840    7.6680    3.8950 ha        1 CD8      0.145500
     33 HAN         8.4160    6.2940    0.5140 ha        1 CD8      0.167000
     34 HAO         2.4430    1.5590    0.6680 h1        1 CD8      0.112000
     35 HAOA        0.9560    0.5700    0.9670 h1        1 CD8      0.112000
     36 HNAS        5.9700    4.4810    2.5660 hn        1 CD8      0.254000
     37 HBA         6.4860    0.8490    0.5440 h4        1 CD8      0.108000
     38 HBE         4.5270    1.0640    2.1180 h4        1 CD8      0.162000
     39 CAC        -0.3430   -0.2710    5.0240 c2        1 CD8     -0.002000
@<TRIPOS>BOND
     1    1    2 1   
     2    1   16 1   
     3    1   25 1   
     4    2   17 1   
     5    3   18 1   
     6    4   19 1   
     7    5   17 1   
     8    6    8 1   
     9    6   31 1   
    10    7    9 1   
    11    7   30 1   
    12    7   32 1   
    13    8   10 1   
    14    8   29 1   
    15    9   21 1   
    16   11   15 1   
    17   11   16 1   
    18   11   34 1   
    19   11   35 1   
    20   12   20 1   
    21   12   22 1   
    22   13   18 1   
    23   13   23 1   
    24   13   36 1   
    25   14   39 1   
    26   15   27 1   
    27   16   20 1   
    28   16   24 1   
    29   17   20 1   
    30   18   21 1   
    31   19   23 1   
    32   19   37 1   
    33   21   33 1   
    34   22   23 1   
    35   22   38 1   
    36   26   39 1   
    37   28   39 1   
@<TRIPOS>SUBSTRUCTURE
     1 CD8         1 TEMP              0 ****  ****    0 ROOT
