@<TRIPOS>MOLECULE
molecule
   39    40     1     0     0
SMALL
bcc


@<TRIPOS>ATOM
      1 CAA          0.0000     0.0000     0.0000 c2         1 CD8      -0.162000
      2 OAF         -1.1710     2.0590     0.8070 o          1 CD8      -0.812300
      3 OAG          5.1050     4.0230     2.1430 o          1 CD8      -0.626100
      4 OAH          6.3230     2.3340     3.7000 o          1 CD8      -0.508100
      5 OAI         -0.3710     3.3760     2.4010 o          1 CD8      -0.812300
      6 CAJ          4.0320     8.2980     4.4360 ca         1 CD8      -0.117000
      7 CAK          4.7670     8.0150     3.2980 ca         1 CD8      -0.144000
      8 CAL          3.4360     7.2760     5.1540 ca         1 CD8      -0.144000
      9 CAM          4.9090     6.7110     2.8730 ca         1 CD8      -0.079000
     10 CAN          3.5720     5.9670     4.7400 ca         1 CD8      -0.079000
     11 CAO          2.4710     0.0000     0.0000 c3         1 CD8       0.085900
     12 NAQ          2.0670     2.1990     1.9860 n2         1 CD8      -0.584900
     13 NAS          3.8820     3.2770     3.8400 ns         1 CD8      -0.566900
     14 OAT          3.3320     1.0240     4.2900 os         1 CD8      -0.368600
     15 SAV          3.5370     0.0000     1.4790 ss         1 CD8      -0.459200
     16 CAX          1.1280     0.5560     0.4310 ce         1 CD8      -0.264800
     17 CAY         -0.2280     2.3940     1.4930 c          1 CD8       0.807300
     18 CAZ          4.4610     4.2750     3.1420 c          1 CD8       0.702700
     19 CBA          5.4910     1.5210     3.3740 c          1 CD8       0.546900
     20 CBB          1.0860     1.7160     1.3300 ce         1 CD8       0.472600
     21 CBC          4.3110     5.6750     3.5930 ca         1 CD8      -0.122600
     22 CBE          3.4480     1.7430     1.9860 c3         1 CD8       0.253600
     23 CBF          4.0300     1.8900     3.3930 c3         1 CD8       0.254200
     24 HAA          0.0370    -0.8560    -0.6630 ha         1 CD8       0.139000
     25 HAAA        -0.9560     0.4020     0.3120 ha         1 CD8       0.139000
     26 HAC          3.0230     1.7120     6.2090 h1         1 CD8       0.032700
     27 HACA         3.8380     0.1470     6.0860 h1         1 CD8       0.032700
     28 HACB         4.7130     1.6330     5.6940 h1         1 CD8       0.032700
     29 HAJ          3.9220     9.3240     4.7660 ha         1 CD8       0.119000
     30 HAK          5.2300     8.8190     2.7400 ha         1 CD8       0.125000
     31 HAL          2.8630     7.5050     6.0450 ha         1 CD8       0.125000
     32 HAM          5.4850     6.4910     1.9820 ha         1 CD8       0.143500
     33 HAN          3.1060     5.1680     5.3040 ha         1 CD8       0.143500
     34 HAO          2.3510    -1.0120    -0.3690 h1         1 CD8       0.061700
     35 HAOA         2.9030     0.6310    -0.7670 h1         1 CD8       0.061700
     36 HNAS         3.3220     3.4880     4.6420 hn         1 CD8       0.330500
     37 HBA          5.7950     0.5210     3.0870 h4         1 CD8       0.018200
     38 HBE          4.0220     2.3450     1.2920 h2         1 CD8       0.114700
     39 CAC          3.7520     1.1360     5.6520 c3         1 CD8       0.109700
@<TRIPOS>BOND
     1     1    16 2
     2     1    24 1
     3     1    25 1
     4    39    14 1
     5    39    26 1
     6    39    27 1
     7    39    28 1
     8     2    17 1
     9     3    18 2
    10     4    19 2
    11    17     5 1
    12     6     8 ar
    13     6     7 ar
    14     6    29 1
    15     7     9 ar
    16     7    30 1
    17     8    10 ar
    18     8    31 1
    19     9    21 ar
    20     9    32 1
    21    10    21 ar
    22    10    33 1
    23    16    11 1
    24    11    15 1
    25    11    34 1
    26    11    35 1
    27    20    12 2
    28    12    22 1
    29    18    13 1
    30    13    23 1
    31    13    36 1
    32    23    14 1
    33    22    15 1
    34    16    20 1
    35    17    20 1
    36    21    18 1
    37    19    23 1
    38    19    37 1
    39    23    22 1
    40    22    38 1
@<TRIPOS>SUBSTRUCTURE
     1 CD8         1 TEMP              0 ****  ****    0 ROOT
