@<TRIPOS>MOLECULE
CD9
   35    38     1     0     0
SMALL
bcc


@<TRIPOS>ATOM
      1 C1           0.0000     0.0000     0.0000 ca         1 CD9      -0.148000
      2 C2           1.3850     0.0000     0.0000 ca         1 CD9      -0.000600
      3 C3           2.0820     0.0000     1.1920 ca         1 CD9      -0.117000
      4 C4           1.3950     0.0020     2.4040 ca         1 CD9      -0.049400
      5 C5           0.0060     0.0020     2.3890 ca         1 CD9      -0.169300
      6 C6          -0.6870     0.0020     1.2000 ca         1 CD9      -0.041000
      7 C7          -0.4340     0.0030     3.8360 c3         1 CD9      -0.054100
      8 C8           0.8640     0.0030     4.6160 c          1 CD9       0.616500
      9 O9           0.9780     0.0040     5.8230 o          1 CD9      -0.627500
     10 N10          1.8640     0.0020     3.7180 n          1 CD9       0.033000
     11 C11          3.2830     0.0000     4.0790 c3         1 CD9       0.091300
     12 C12          3.7430    -1.4170     4.3060 ca         1 CD9      -0.096300
     13 C13          2.8910    -2.4670     4.0460 ca         1 CD9      -0.133000
     14 C14          3.3060    -3.7720     4.2510 ca         1 CD9      -0.114000
     15 C15          4.5820    -4.0360     4.7200 ca         1 CD9       0.026100
     16 C16          5.4550    -2.9850     4.9870 ca         1 CD9       0.085100
     17 C17          5.0370    -1.6660     4.7750 ca         1 CD9      -0.038600
     18 C18          5.9520    -0.5450     5.0540 c          1 CD9       0.971200
     19 O19          6.0420    -0.0440     6.3020 o          1 CD9      -0.875300
     20 O20          6.6250    -0.0720     4.1590 o          1 CD9      -0.875300
     21 O21          6.6350    -3.4980     5.4330 os         1 CD9      -0.285900
     22 C22          6.6200    -4.8860     5.0500 c3         1 CD9       0.419200
     23 O23          5.2170    -5.2120     4.9990 os         1 CD9      -0.334900
     24 Cl24         2.2480    -0.0020    -1.5050 cl         1 CD9      -0.040400
     25 H1          -0.5430     0.0000    -0.9370 ha         1 CD9       0.110000
     26 H3           3.1650     0.0000     1.1850 ha         1 CD9       0.138000
     27 H6          -1.7710     0.0020     1.2040 ha         1 CD9       0.098000
     28 H17         -1.0080    -0.8880     4.0570 hc         1 CD9       0.045700
     29 H27         -1.0070     0.8960     4.0550 hc         1 CD9       0.045700
     30 H111         3.8610     0.4430     3.2760 h1         1 CD9       0.065200
     31 H211         3.4260     0.5760     4.9860 h1         1 CD9       0.065200
     32 H13          1.8900    -2.2720     3.6790 ha         1 CD9       0.097000
     33 H14          2.6290    -4.5920     4.0440 ha         1 CD9       0.094000
     34 H122         7.0600    -5.0010     4.0670 h2         1 CD9       0.000700
     35 H222         7.1080    -5.4830     5.8110 h2         1 CD9       0.000700
@<TRIPOS>BOND
     1     1     2 ar  
     2     1     6 ar  
     3     1    25 1   
     4     2     3 ar  
     5     2    24 1   
     6     3     4 ar  
     7     3    26 1   
     8     4     5 ar  
     9     4    10 1   
    10     5     6 ar  
    11     5     7 1   
    12     6    27 1   
    13     7     8 1   
    14     7    28 1   
    15     7    29 1   
    16     8     9 2   
    17     8    10 1   
    18    10    11 1   
    19    11    12 1   
    20    11    30 1   
    21    11    31 1   
    22    12    13 ar  
    23    12    17 ar  
    24    13    14 ar  
    25    13    32 1   
    26    14    15 ar  
    27    14    33 1   
    28    15    16 ar  
    29    15    23 1   
    30    16    17 ar  
    31    16    21 1   
    32    17    18 1   
    33    18    19 1   
    34    18    20 1   
    35    21    22 1   
    36    22    23 1   
    37    22    34 1   
    38    22    35 1   
@<TRIPOS>SUBSTRUCTURE
     1 CD9         1 TEMP              0 ****  ****    0 ROOT
