@<TRIPOS>MOLECULE
molecule
   35    38     1     0     0
SMALL
bcc


@<TRIPOS>ATOM
      1 C1           0.0000     0.0000     0.0000 ca         1 CD9      -0.166000
      2 C2           1.3850     0.0000     0.0000 ca         1 CD9       0.059400
      3 C3           2.0820     0.0000     1.1920 ca         1 CD9      -0.146000
      4 C4           1.3950     0.0020     2.4040 ca         1 CD9       0.085600
      5 C5           0.0060     0.0020     2.3890 ca         1 CD9      -0.161300
      6 C6          -0.6870     0.0020     1.2000 ca         1 CD9      -0.077000
      7 C7          -0.4340     0.0030     3.8360 c3         1 CD9      -0.128100
      8 C8           0.8640     0.0030     4.6160 c          1 CD9       0.707500
      9 O9           0.9780     0.0040     5.8230 o          1 CD9      -0.583500
     10 N10          1.8640     0.0020     3.7180 n          1 CD9      -0.362000
     11 C11          3.2830     0.0000     4.0790 c3         1 CD9       0.156300
     12 C12          3.7430    -1.4170     4.3060 ca         1 CD9      -0.096300
     13 C13          2.8910    -2.4670     4.0460 ca         1 CD9      -0.134000
     14 C14          3.3060    -3.7720     4.2510 ca         1 CD9      -0.141000
     15 C15          4.5820    -4.0360     4.7200 ca         1 CD9       0.026100
     16 C16          5.4550    -2.9850     4.9870 ca         1 CD9       0.070100
     17 C17          5.0370    -1.6660     4.7750 ca         1 CD9      -0.046600
     18 C18          5.9520    -0.5450     5.0540 c          1 CD9       0.879200
     19 O19          6.0420    -0.0440     6.3020 o          1 CD9      -0.821800
     20 O20          6.6250    -0.0720     4.1590 o          1 CD9      -0.821800
     21 O21          6.6350    -3.4980     5.4330 os         1 CD9      -0.298900
     22 C22          6.6200    -4.8860     5.0500 c3         1 CD9       0.325200
     23 O23          5.2170    -5.2120     4.9990 os         1 CD9      -0.349900
     24 Cl24         2.2480    -0.0020    -1.5050 cl         1 CD9      -0.115400
     25 H1          -0.5430     0.0000    -0.9370 ha         1 CD9       0.137000
     26 H3           3.1650     0.0000     1.1850 ha         1 CD9       0.166000
     27 H6          -1.7710     0.0020     1.2040 ha         1 CD9       0.129000
     28 H17         -1.0080    -0.8880     4.0570 hc         1 CD9       0.082700
     29 H27         -1.0070     0.8960     4.0550 hc         1 CD9       0.082700
     30 H111         3.8610     0.4430     3.2760 h1         1 CD9       0.096200
     31 H211         3.4260     0.5760     4.9860 h1         1 CD9       0.096200
     32 H13          1.8900    -2.2720     3.6790 ha         1 CD9       0.121000
     33 H14          2.6290    -4.5920     4.0440 ha         1 CD9       0.119000
     34 H122         7.0600    -5.0010     4.0670 h2         1 CD9       0.054700
     35 H222         7.1080    -5.4830     5.8110 h2         1 CD9       0.054700
@<TRIPOS>BOND
     1    23    22 1
     2    23    15 1
     3    22    21 1
     4    15    14 ar
     5    15    16 ar
     6    21    16 1
     7    14    13 ar
     8    16    17 ar
     9    13    12 ar
    10    17    12 ar
    11    17    18 1
    12    19    18 1
    13    12    11 1
    14    18    20 1
    15    11    10 1
    16     9     8 2
    17    10     8 1
    18    10     4 1
    19     8     7 1
    20     3     4 ar
    21     3     2 ar
    22     4     5 ar
    23    24     2 1
    24     2     1 ar
    25     7     5 1
    26     5     6 ar
    27     1     6 ar
    28     1    25 1
    29     3    26 1
    30     6    27 1
    31     7    28 1
    32     7    29 1
    33    11    30 1
    34    11    31 1
    35    13    32 1
    36    14    33 1
    37    22    34 1
    38    22    35 1
@<TRIPOS>SUBSTRUCTURE
     1 CD9         1 TEMP              0 ****  ****    0 ROOT
