@<TRIPOS>MOLECULE
CDA
   51    53     1     0     0
SMALL
bcc


@<TRIPOS>ATOM
      1 N1          1.4580   -0.8560   -1.1190 nb        1 CDA     -0.645000
      2 C2          2.5800   -0.6320   -1.8460 ca        1 CDA      0.324600
      3 C3          3.8600   -0.5200   -1.2750 ca        1 CDA     -0.207300
      4 C4          3.9830   -0.6450    0.1140 ca        1 CDA     -0.091000
      5 C5          2.8400   -0.8790    0.8750 ca        1 CDA     -0.216300
      6 C6          1.6000   -0.9760    0.2110 ca        1 CDA      0.401200
      7 C11         2.4080   -0.4990   -3.3670 c3        1 CDA      0.337300
      8 C12         1.5210    0.7730   -3.6530 c3        1 CDA      0.159800
      9 F13         1.8760   -1.6340   -3.9430 f         1 CDA     -0.238300
     10 F1          3.6220   -0.4130   -4.0270 f         1 CDA     -0.238300
     11 N18         1.3750    1.0930   -5.0450 nh        1 CDA     -0.772200
     12 C21         0.3160    0.6010   -5.8020 cc        1 CDA      0.602200
     13 C22         0.5410    0.6240   -7.3020 c         1 CDA      0.549200
     14 N23        -0.5530    0.3130   -8.1220 n         1 CDA     -0.347000
     15 C24        -1.7820   -0.0550   -7.5340 cc        1 CDA     -0.076600
     16 C25        -1.8630   -0.1060   -6.1550 cd        1 CDA      0.061600
     17 N26        -0.8490    0.2180   -5.2870 nd        1 CDA     -0.562300
     18 O28         1.6510    0.8460   -7.8400 o         1 CDA     -0.685500
     19 C29        -2.9620   -0.3780   -8.3790 c3        1 CDA     -0.062900
     20 C33        -0.4430    0.5400   -9.5340 c3        1 CDA      0.021000
     21 C34         0.1920   -0.5980  -10.3360 c         1 CDA      0.519100
     22 N37         1.4390   -1.2070   -9.7620 n4        1 CDA     -0.669800
     23 O38        -0.2040   -1.0020  -11.4170 o         1 CDA     -0.406100
     24 C39         2.2160   -2.0090  -10.7540 c3        1 CDA      0.076500
     25 C40         3.4490   -2.6360  -10.1570 ca        1 CDA      0.289600
     26 C43         4.6070   -2.7690  -10.9650 ca        1 CDA      0.056600
     27 C44         5.7420   -3.4170  -10.4230 ca        1 CDA     -0.111000
     28 C45         5.6780   -3.8880   -9.1200 ca        1 CDA     -0.180300
     29 N46         3.4000   -3.0960   -8.8800 nb        1 CDA     -0.674000
     30 F47         4.6300   -2.2900  -12.2260 f         1 CDA     -0.112900
     31 C50         4.4850   -3.7000   -8.3820 ca        1 CDA      0.411200
     32 H3          4.7430   -0.3440   -1.9060 ha        1 CDA      0.159000
     33 H4          4.9710   -0.5620    0.5910 ha        1 CDA      0.154000
     34 H5          2.8930   -0.9860    1.9680 ha        1 CDA      0.159000
     35 H6          0.6660   -1.1610    0.7740 h4        1 CDA      0.037100
     36 H121        0.5210    0.6120   -3.1610 h1        1 CDA      0.113200
     37 H122        2.0390    1.6480   -3.1650 h1        1 CDA      0.113200
     38 H18         2.2380    1.1780   -5.5500 hn        1 CDA      0.445800
     39 H25        -2.7990   -0.4180   -5.6530 h4        1 CDA      0.200000
     40 H291       -2.7080   -1.1120   -9.1840 hc        1 CDA      0.067033
     41 H292       -3.7660   -0.8280   -7.7420 hc        1 CDA      0.067033
     42 H293       -3.3770    0.5490   -8.8520 hc        1 CDA      0.067033
     43 H331       -1.4630    0.7190   -9.9910 h1        1 CDA      0.135700
     44 H332        0.2060    1.4520   -9.7240 h1        1 CDA      0.135700
     45 H37         2.0380   -0.4520   -9.3770 hn        1 CDA      0.487800
     46 H391        1.5390   -2.8200  -11.1580 hx        1 CDA      0.122200
     47 H392        2.5060   -1.3280  -11.6060 hx        1 CDA      0.122200
     48 H44         6.6480   -3.5350  -11.0390 ha        1 CDA      0.182000
     49 H45         6.5370   -4.3990   -8.6580 ha        1 CDA      0.177000
     50 H50         4.4010   -4.0560   -7.3370 h4        1 CDA      0.054100
     51 H372        1.1710   -1.8110   -8.9710 hn        1 CDA      0.487800
@<TRIPOS>BOND
     1    1    2 ar
     2    1    6 ar
     3    2    3 ar
     4    2    7 1
     5    3    4 ar
     6    3   32 1
     7    4    5 ar
     8    4   33 1
     9    5    6 ar
    10    5   34 1
    11    6   35 1
    12    7    8 1
    13    7    9 1
    14    7   10 1
    15    8   11 1
    16    8   36 1
    17    8   37 1
    18   11   12 1
    19   11   38 1
    20   12   13 1
    21   12   17 2
    22   13   14 1
    23   13   18 2
    24   14   15 1
    25   14   20 1
    26   15   16 2
    27   15   19 1
    28   16   17 1
    29   16   39 1
    30   19   40 1
    31   19   41 1
    32   19   42 1
    33   20   21 1
    34   20   43 1
    35   20   44 1
    36   21   22 1
    37   21   23 2
    38   22   24 1
    39   22   45 1
    40   22   51 1
    41   24   25 1
    42   24   46 1
    43   24   47 1
    44   25   26 ar
    45   25   29 ar
    46   26   27 ar
    47   26   30 1
    48   27   28 ar
    49   27   48 1
    50   28   31 ar
    51   28   49 1
    52   29   31 ar
    53   31   50 1
@<TRIPOS>SUBSTRUCTURE
     1 CDA         1 TEMP              0 ****  ****    0 ROOT
