@<TRIPOS>MOLECULE
CDB
   56    58     1     0     0
SMALL
bcc


@<TRIPOS>ATOM
      1 N1         -0.2110   -0.5390    0.1800 na        1 CDB     -0.062100
      2 C2          1.1050   -0.1880   -0.0180 ca        1 CDB     -0.100600
      3 C3          1.9790   -0.1010    1.0670 ca        1 CDB     -0.102000
      4 C4          1.5080   -0.3640    2.3700 ca        1 CDB      0.008000
      5 C5          0.1710   -0.7090    2.5520 ca        1 CDB     -0.108000
      6 C6         -0.6780   -0.7960    1.4300 ca        1 CDB      0.024700
      7 C11         1.6410    0.0190   -1.4560 c3        1 CDB      0.466900
      8 C12         2.1130    1.5210   -1.6250 c3        1 CDB     -0.030700
      9 F13         0.7160   -0.3060   -2.4240 f         1 CDB     -0.187300
     10 F1          2.6680   -0.8600   -1.7130 f         1 CDB     -0.187300
     11 N18         2.7300    1.7350   -2.9120 nh        1 CDB     -0.342100
     12 C21         3.1450    2.9310   -3.4000 cc        1 CDB      0.361800
     13 C22         3.7960    2.9090   -4.8000 c         1 CDB      0.599200
     14 N23         4.2910    4.1160   -5.3010 n         1 CDB     -0.333000
     15 C24         4.1130    5.3140   -4.5840 cc        1 CDB      0.068400
     16 C25         3.5020    5.2940   -3.3520 cd        1 CDB     -0.162100
     17 N26         3.0330    4.1170   -2.7580 na        1 CDB     -0.195400
     18 O28         3.8750    1.8470   -5.4280 o         1 CDB     -0.535500
     19 C29         4.5890    6.6100   -5.1460 c3        1 CDB     -0.087900
     20 C33         4.9940    4.0930   -6.5660 c3        1 CDB      0.017000
     21 C34         4.0960    4.3540   -7.7810 c         1 CDB      0.503100
     22 N37         4.6980    4.0070   -9.1050 n4        1 CDB     -0.659800
     23 O38         2.9670    4.8180   -7.7560 o         1 CDB     -0.381100
     24 C39         4.0660    4.7480  -10.2550 c3        1 CDB      0.088500
     25 C40         4.7530    4.4480  -11.5600 ca        1 CDB      0.260600
     26 C43         4.7730    5.4530  -12.5590 ca        1 CDB      0.060600
     27 C44         5.3380    5.1480  -13.8300 ca        1 CDB     -0.027300
     28 C45         5.8580    3.8690  -14.0130 ca        1 CDB     -0.178300
     29 N46         5.2760    3.2080  -11.7560 nb        1 CDB     -0.708000
     30 F47         4.2620    6.6740  -12.3010 f         1 CDB     -0.110900
     31 C50         5.8120    2.9370  -12.9500 ca        1 CDB      0.424200
     32 C1          5.3540    6.1570  -14.9090 c3        1 CDB     -0.083800
     33 H1         -0.8200   -0.6460   -0.6220 hn        1 CDB      0.360700
     34 H3          3.0450    0.1380    0.9010 ha        1 CDB      0.200000
     35 H4          2.2020   -0.3080    3.2330 ha        1 CDB      0.220000
     36 H5         -0.2410   -0.9320    3.5570 ha        1 CDB      0.232000
     37 H6         -1.7520   -1.0840    1.5260 h4        1 CDB      0.243000
     38 H121        2.8510    1.7440   -0.8020 h1        1 CDB      0.103700
     39 H122        1.2010    2.1750   -1.5140 h1        1 CDB      0.103700
     40 H18         2.8820    0.9240   -3.4990 hn        1 CDB      0.366700
     41 H25         3.3470    6.2170   -2.7560 h4        1 CDB      0.237000
     42 H26         2.6110    4.1940   -1.8480 hn        1 CDB      0.342700
     43 H291        5.7100    6.6520   -5.1490 hc        1 CDB      0.097700
     44 H292        4.2070    6.7570   -6.1890 hc        1 CDB      0.097700
     45 H293        4.2160    7.4630   -4.5210 hc        1 CDB      0.097700
     46 H331        5.7990    4.8910   -6.5570 h1        1 CDB      0.140700
     47 H332        5.4880    3.0780   -6.6810 h1        1 CDB      0.140700
     48 H37         4.5760    2.9920   -9.2720 hn        1 CDB      0.482800
     49 H391        4.1170    5.8540  -10.0350 hx        1 CDB      0.126200
     50 H392        2.9810    4.4330  -10.3090 hx        1 CDB      0.126200
     51 H45         6.3050    3.5780  -14.9790 ha        1 CDB      0.190000
     52 H50         6.2280    1.9170  -13.0760 h4        1 CDB      0.059100
     53 H11         5.4950    7.1860  -14.4940 hc        1 CDB      0.083033
     54 H12         4.3770    6.1370  -15.4610 hc        1 CDB      0.083033
     55 H13         6.1730    5.9490  -15.6420 hc        1 CDB      0.083033
     56 H372        5.7080    4.1990   -9.1020 hn        1 CDB      0.482800
@<TRIPOS>BOND
     1    1    2 1
     2    1    6 2
     3    1   33 1
     4    2    3 ar
     5    2    7 1
     6    3    4 ar
     7    3   34 1
     8    4    5 ar
     9    4   35 1
    10    5    6 ar
    11    5   36 1
    12    6   37 1
    13    7    8 1
    14    7    9 1
    15    7   10 1
    16    8   11 1
    17    8   38 1
    18    8   39 1
    19   11   12 2
    20   11   40 1
    21   12   13 1
    22   12   17 1
    23   13   14 1
    24   13   18 2
    25   14   15 1
    26   14   20 1
    27   15   16 2
    28   15   19 1
    29   16   17 1
    30   16   41 1
    31   17   42 1
    32   19   43 1
    33   19   44 1
    34   19   45 1
    35   20   21 1
    36   20   46 1
    37   20   47 1
    38   21   22 1
    39   21   23 2
    40   22   24 1
    41   22   48 1
    42   22   56 1
    43   24   25 1
    44   24   49 1
    45   24   50 1
    46   25   26 ar
    47   25   29 ar
    48   26   27 ar
    49   26   30 1
    50   27   28 ar
    51   27   32 1
    52   28   31 ar
    53   28   51 1
    54   29   31 ar
    55   31   52 1
    56   32   53 1
    57   32   54 1
    58   32   55 1
@<TRIPOS>SUBSTRUCTURE
     1 CDB         1 TEMP              0 ****  ****    0 ROOT
