@<TRIPOS>MOLECULE
molecule
   57    58     1     0     0
SMALL
bcc


@<TRIPOS>ATOM
      1 N1           0.0000     0.0000     0.0000 n          1 CDC      -0.300000
      2 C2           1.3460     0.0000     0.0000 c          1 CDC       0.809900
      3 N3           2.0340     0.0000     1.1410 nc         1 CDC      -0.623100
      4 C4           1.4060    -0.0120     2.3100 cd         1 CDC       0.552500
      5 C5          -0.0030    -0.0180     2.3440 cd         1 CDC      -0.458600
      6 C6          -0.6880    -0.0120     1.1760 cc         1 CDC       0.140600
      7 O2           1.9460     0.0120    -1.0620 o          1 CDC      -0.474500
      8 N4           2.1280    -0.0170     3.4810 nz         1 CDC      -0.737600
      9 C1'         -0.7280     0.0070    -1.2710 c3         1 CDC       0.273500
     10 C2'         -0.3900     1.2780    -2.0920 c3         1 CDC       0.082100
     11 O2'         -1.2330     2.3680    -1.7150 oh         1 CDC      -0.592800
     12 C3'         -0.6940     0.8180    -3.5420 c3         1 CDC       0.102100
     13 C4'         -0.6320    -0.7200    -3.4680 c3         1 CDC       0.121100
     14 O4'         -0.2790    -1.0720    -2.1200 os         1 CDC      -0.363600
     15 O3'         -1.9950     1.2550    -3.9420 oh         1 CDC      -0.588800
     16 C5'          0.4280    -1.2450    -4.4380 c3         1 CDC       0.163400
     17 O5'          0.4030    -2.6730    -4.4430 os         1 CDC      -0.542200
     18 PA           1.5370    -3.1550    -5.4790 p5         1 CDC       1.276800
     19 O1A          1.1410    -2.6840    -6.9660 o          1 CDC      -0.785500
     20 O2A          2.8370    -2.5550    -5.1020 o          1 CDC      -0.785500
     21 O3A          1.6550    -4.7600    -5.4390 os         1 CDC      -0.641800
     22 PB           3.0970    -5.1370    -6.0480 p5         1 CDC       1.248800
     23 O1B          3.0920    -6.6740    -6.5250 os         1 CDC      -0.563200
     24 O2B          3.3990    -4.2230    -7.2560 o          1 CDC      -0.769500
     25 O3B          4.1810    -4.9370    -4.9660 o          1 CDC      -0.769500
     26 C14          4.3500    -6.9130    -7.1590 c3         1 CDC       0.134400
     27 C15          4.4120    -8.3640    -7.6390 c3         1 CDC       0.097800
     28 N11          3.4460    -8.5620    -8.7290 n4         1 CDC      -0.567800
     29 C16          3.7050    -7.5860    -9.7950 c3         1 CDC       0.097433
     30 C17          2.0830    -8.3750    -8.2130 c3         1 CDC       0.097433
     31 C18          3.5850    -9.9220    -9.2650 c3         1 CDC       0.097433
     32 H5          -0.5300    -0.0280     3.2900 ha         1 CDC       0.159000
     33 H6          -1.7710    -0.0140     1.1760 h4         1 CDC       0.197000
     34 H41          1.8910     0.7910     4.0220 hn         1 CDC       0.470133
     35 H42          1.9100    -0.8430     4.0030 hn         1 CDC       0.470133
     36 H1'         -1.7960    -0.0620    -1.1050 h2         1 CDC       0.093700
     37 H2'          0.6570     1.5360    -1.9840 h1         1 CDC       0.081700
     38 HO'2        -0.7270     3.1620    -1.6870 ho         1 CDC       0.406000
     39 H3'          0.0620     1.1920    -4.2210 h1         1 CDC       0.078700
     40 H4'         -1.6010    -1.1370    -3.7130 h1         1 CDC       0.082700
     41 H3T         -1.9270     1.7610    -4.7350 ho         1 CDC       0.413000
     42 H5'1         0.2200    -0.8760    -5.4350 h1         1 CDC       0.074200
     43 H5'2         1.4060    -0.9030    -4.1230 h1         1 CDC       0.074200
     44 H141         5.1510    -6.7320    -6.4530 h1         1 CDC       0.093200
     45 H142         4.4600    -6.2470    -8.0070 h1         1 CDC       0.093200
     46 H151         5.4100    -8.5840    -7.9980 hx         1 CDC       0.083200
     47 H152         4.1700    -9.0270    -6.8170 hx         1 CDC       0.083200
     48 H161         4.7740    -7.4620    -9.9190 hx         1 CDC       0.094033
     49 H162         3.2720    -7.9400   -10.7230 hx         1 CDC       0.094033
     50 H163         3.2590    -6.6340    -9.5300 hx         1 CDC       0.094033
     51 H171         1.8450    -7.3180    -8.1970 hx         1 CDC       0.094033
     52 H172         2.0190    -8.7750    -7.2090 hx         1 CDC       0.094033
     53 H173         1.3800    -8.8930    -8.8540 hx         1 CDC       0.094033
     54 H181         2.8660   -10.0710   -10.0620 hx         1 CDC       0.094033
     55 H182         4.5870   -10.0570    -9.6530 hx         1 CDC       0.094033
     56 H183         3.4030   -10.6420    -8.4760 hx         1 CDC       0.094033
     57 H43          3.1060    -0.0090     3.2710 hn         1 CDC       0.470133
@<TRIPOS>BOND
     1     1     2 1
     2     1     6 1
     3     1     9 1
     4     2     3 1
     5     2     7 2
     6     3     4 2
     7     4     5 1
     8     4     8 1
     9     5     6 2
    10     5    32 1
    11     6    33 1
    12     8    34 1
    13     8    35 1
    14     9    10 1
    15     9    14 1
    16     9    36 1
    17    10    11 1
    18    10    12 1
    19    10    37 1
    20    11    38 1
    21    12    13 1
    22    12    15 1
    23    12    39 1
    24    13    14 1
    25    13    16 1
    26    13    40 1
    27    15    41 1
    28    16    17 1
    29    16    42 1
    30    16    43 1
    31    17    18 1
    32    18    19 1
    33    18    20 1
    34    18    21 1
    35    21    22 1
    36    22    23 1
    37    22    24 1
    38    22    25 1
    39    23    26 1
    40    26    27 1
    41    26    44 1
    42    26    45 1
    43    27    28 1
    44    27    46 1
    45    27    47 1
    46    28    29 1
    47    28    30 1
    48    28    31 1
    49    29    48 1
    50    29    49 1
    51    29    50 1
    52    30    51 1
    53    30    52 1
    54    30    53 1
    55    31    54 1
    56    31    55 1
    57    31    56 1
    58    57     8 1
@<TRIPOS>SUBSTRUCTURE
     1 CDC         1 TEMP              0 ****  ****    0 ROOT
