@<TRIPOS>MOLECULE
CDD
   50    52     1     0     0
SMALL
bcc


@<TRIPOS>ATOM
      1 C1          2.5750    1.6770   -0.2150 ca        1 CDD     -0.203300
      2 N2          3.7310    0.9120   -0.0650 na        1 CDD      0.268600
      3 C3          4.0380    0.4630    1.2220 ca        1 CDD     -0.265600
      4 C4          3.2130    0.7650    2.3160 ca        1 CDD     -0.050000
      5 C5          2.0600    1.5230    2.1430 ca        1 CDD     -0.159000
      6 C6          1.7480    1.9840    0.8620 ca        1 CDD     -0.062000
      7 C11         5.3250   -0.3450    1.4200 c3        1 CDD      0.483900
      8 C12         5.1570   -1.7300    0.6940 c3        1 CDD      0.164800
      9 F13         6.4440    0.3330    0.9790 f         1 CDD     -0.224800
     10 F14         5.6250   -0.5150    2.7580 f         1 CDD     -0.224800
     11 N15         6.3550   -2.5280    0.7660 nh        1 CDD     -0.787200
     12 C18         6.5150   -3.6420   -0.0250 cc        1 CDD      0.630200
     13 C19         7.9200   -4.2220   -0.0440 c         1 CDD      0.554200
     14 N20         8.1030   -5.4440   -0.7050 n         1 CDD     -0.348000
     15 C21         7.0040   -6.0230   -1.3780 cc        1 CDD     -0.030000
     16 C22         5.7760   -5.3930   -1.3540 cd        1 CDD      0.101600
     17 N23         5.5110   -4.2260   -0.6850 nd        1 CDD     -0.593300
     18 C24         9.3290   -6.1620   -0.5030 c3        1 CDD      0.016000
     19 C25        10.4820   -5.7700   -1.4290 c         1 CDD      0.522100
     20 N28        10.6910   -4.3010   -1.6530 n4        1 CDD     -0.681800
     21 C29        12.0040   -3.9710   -2.2970 c3        1 CDD      0.179100
     22 C30        12.1550   -2.5050   -2.5120 ca        1 CDD     -0.212300
     23 C33        13.2140   -1.8100   -1.9210 ca        1 CDD     -0.067000
     24 C34        13.4010   -0.4550   -2.1870 ca        1 CDD     -0.127000
     25 C35        12.5290    0.2220   -3.0420 ca        1 CDD     -0.061000
     26 C2         11.4610   -0.4460   -3.6370 ca        1 CDD     -0.140000
     27 C37        11.2720   -1.8120   -3.3710 ca        1 CDD      0.129900
     28 O42         8.9190   -3.6480    0.4450 o         1 CDD     -0.676500
     29 CL43        7.2130   -7.4720   -2.2360 cl        1 CDD     -0.022400
     30 O44        11.2690   -6.5510   -1.9380 o         1 CDD     -0.400100
     31 F1         10.2290   -2.4760   -3.9300 f         1 CDD     -0.149900
     32 O1          4.4340    0.6290   -1.0250 o         1 CDD     -0.287000
     33 H1          2.3750    2.0180   -1.2470 h4        1 CDD      0.199000
     34 H4          3.5030    0.3950    3.3140 ha        1 CDD      0.173000
     35 H5          1.4110    1.7590    2.9990 ha        1 CDD      0.165000
     36 H6          0.8500    2.5960    0.6810 ha        1 CDD      0.170000
     37 H121        4.3170   -2.2840    1.2000 h1        1 CDD      0.105200
     38 H122        4.8780   -1.5240   -0.3810 h1        1 CDD      0.105200
     39 H15         7.1860   -2.0870    1.1050 hn        1 CDD      0.466800
     40 H22         4.9060   -5.8170   -1.8940 h4        1 CDD      0.211000
     41 H241        9.7040   -5.9830    0.5530 h1        1 CDD      0.140200
     42 H242        9.1700   -7.2750   -0.6460 h1        1 CDD      0.140200
     43 H28         9.9320   -3.9500   -2.2560 hn        1 CDD      0.480300
     44 H291       12.0420   -4.5170   -3.2870 hx        1 CDD      0.116200
     45 H292       12.8230   -4.3750   -1.6360 hx        1 CDD      0.116200
     46 H33        13.9130   -2.3370   -1.2520 ha        1 CDD      0.151000
     47 H34        14.2430    0.0830   -1.7210 ha        1 CDD      0.165000
     48 H35        12.6840    1.2940   -3.2510 ha        1 CDD      0.167000
     49 H2         10.7670    0.0790   -4.3120 ha        1 CDD      0.175000
     50 H282       10.6110   -3.8110   -0.7420 hn        1 CDD      0.480300
@<TRIPOS>BOND
     1    1    2 1   
     2    1    6 ar  
     3    1   33 1   
     4    2    3 2   
     5    2   32 1   
     6    3    4 ar  
     7    3    7 1   
     8    4    5 ar  
     9    4   34 1   
    10    5    6 ar  
    11    5   35 1   
    12    6   36 1   
    13    7    8 1   
    14    7    9 1   
    15    7   10 1   
    16    8   11 1   
    17    8   37 1   
    18    8   38 1   
    19   11   12 1   
    20   11   39 1   
    21   12   13 1   
    22   12   17 2   
    23   13   14 1   
    24   13   28 2   
    25   14   15 1   
    26   14   18 1   
    27   15   16 2   
    28   15   29 1   
    29   16   17 1   
    30   16   40 1   
    31   18   19 1   
    32   18   41 1   
    33   18   42 1   
    34   19   20 1   
    35   19   30 2   
    36   20   21 1   
    37   20   43 1   
    38   20   50 1   
    39   21   22 1   
    40   21   44 1   
    41   21   45 1   
    42   22   23 ar  
    43   22   27 ar  
    44   23   24 ar  
    45   23   46 1   
    46   24   25 ar  
    47   24   47 1   
    48   25   26 ar  
    49   25   48 1   
    50   26   27 ar  
    51   26   49 1   
    52   27   31 1   
@<TRIPOS>SUBSTRUCTURE
     1 CDD         1 TEMP              0 ****  ****    0 ROOT
