@<TRIPOS>MOLECULE
CDF
   37    38     1     0     0
SMALL
bcc


@<TRIPOS>ATOM
      1 O3B         1.5340    1.0000    2.6390 o         1 CDF     -0.887500
      2 PB          1.7330    0.8140    1.1860 p5        1 CDF      1.595800
      3 O1B         3.2980    0.3720    0.9630 oh        1 CDF     -0.810400
      4 O2B         0.8860   -0.1080    0.4030 o         1 CDF     -0.887500
      5 O3A         1.8920    2.2800    0.4570 os        1 CDF     -0.825800
      6 PA          1.9180    3.7770   -0.1530 p5        1 CDF      1.608800
      7 O1A         0.5850    4.4080   -0.0990 o         1 CDF     -0.894000
      8 O2A         3.1450    4.4830    0.2890 o         1 CDF     -0.894000
      9 O5'         2.2420    3.4680   -1.7640 os        1 CDF     -0.586200
     10 C5'         2.1180    4.5520   -2.6210 c3        1 CDF      0.200400
     11 C4'         3.4920    5.0020   -3.1550 c3        1 CDF      0.079100
     12 O4'         3.3000    5.4640   -4.5070 os        1 CDF     -0.429600
     13 C3'         4.1330    6.1490   -2.3460 c3        1 CDF      0.148100
     14 O3'         5.1640    5.6940   -1.4980 oh        1 CDF     -0.640800
     15 C2'         4.7550    7.0580   -3.4240 c3        1 CDF      0.098100
     16 O2'         4.5780    8.4150   -3.0490 oh        1 CDF     -0.609800
     17 C1'         3.9340    6.7440   -4.7110 c3        1 CDF      0.284500
     18 N1          4.7210    6.7740   -5.9360 n         1 CDF     -0.329400
     19 C2          4.0970    7.2500   -7.1470 c         1 CDF      0.748500
     20 O2          2.9440    7.7640   -7.0990 o         1 CDF     -0.701100
     21 N3          4.7790    7.1750   -8.3660 ne        1 CDF     -0.813100
     22 C4          6.0570    6.7140   -8.3470 cf        1 CDF      0.655500
     23 N4          6.7760    6.6720   -9.5830 nh        1 CDF     -0.882800
     24 C6          6.0040    6.3290   -5.9360 c1        1 CDF     -0.088900
     25 C5          6.7090    6.3110   -7.1550 cf        1 CDF     -0.589700
     26 H5'1        1.4970    4.2340   -3.5080 h1        1 CDF      0.022700
     27 H5'2        1.5980    5.4070   -2.1050 h1        1 CDF      0.022700
     28 H4'         4.1900    4.1230   -3.1950 h1        1 CDF      0.075700
     29 H3'         3.3620    6.7100   -1.7500 h1        1 CDF      0.058700
     30 H1'         3.0880    7.4880   -4.8290 h2        1 CDF      0.076700
     31 HA          4.7290    5.2080   -0.7710 ho        1 CDF      0.475000
     32 H2'         5.8470    6.8260   -3.5550 h1        1 CDF      0.102700
     33 HB          4.9230    8.9330   -3.7850 ho        1 CDF      0.387000
     34 H41N        7.3500    5.8540   -9.6130 hn        1 CDF      0.347300
     35 H42N        6.1810    6.7060  -10.3860 hn        1 CDF      0.347300
     36 H6          3.8560    1.0790    0.6680 ho        1 CDF      0.427000
     37 H5          7.7470    5.9710   -7.1510 ha        1 CDF      0.106000
@<TRIPOS>BOND
     1    1    2 1   
     2    2    3 1   
     3    2    4 1   
     4    2    5 1   
     5    3   36 1   
     6    5    6 1   
     7    6    7 1   
     8    6    8 1   
     9    6    9 1   
    10    9   10 1   
    11   10   11 1   
    12   10   26 1   
    13   10   27 1   
    14   11   12 1   
    15   11   13 1   
    16   11   28 1   
    17   12   17 1   
    18   13   14 1   
    19   13   15 1   
    20   13   29 1   
    21   14   31 1   
    22   15   16 1   
    23   15   17 1   
    24   15   32 1   
    25   16   33 1   
    26   17   18 1   
    27   17   30 1   
    28   18   19 1   
    29   18   24 2   
    30   19   20 2   
    31   19   21 1   
    32   21   22 2   
    33   22   23 1   
    34   22   25 1   
    35   23   34 1   
    36   23   35 1   
    37   24   25 2   
    38   25   37 1   
@<TRIPOS>SUBSTRUCTURE
     1 CDF         1 TEMP              0 ****  ****    0 ROOT
