@<TRIPOS>MOLECULE
molecule
   38    39     1     0     0
SMALL
bcc


@<TRIPOS>ATOM
      1 O3B          0.0000     0.0000     0.0000 o          1 CDF      -0.650833
      2 PB           1.4800     0.0000     0.0000 p5         1 CDF       1.302900
      3 O1B          2.0160     0.0000     1.5170 o          1 CDF      -0.650833
      4 O2B          2.0160    -1.3150    -0.7590 o          1 CDF      -0.650833
      5 O3A          2.0160     1.3140    -0.7600 os         1 CDF      -0.710800
      6 PA           1.6170     2.8730    -0.7150 p5         1 CDF       1.435800
      7 O1A          0.2310     3.0960    -1.5020 o          1 CDF      -0.843000
      8 O2A          1.4600     3.3020     0.6930 o          1 CDF      -0.843000
      9 O5'          2.7770     3.7450    -1.4140 os         1 CDF      -0.597200
     10 C5'          2.7670     5.1730    -1.4420 c3         1 CDF       0.226400
     11 C4'          4.0090     5.6780    -2.1800 c3         1 CDF       0.124100
     12 O4'          3.9360     5.3050    -3.5620 os         1 CDF      -0.396600
     13 C3'          4.0670     7.2180    -2.1150 c3         1 CDF       0.072100
     14 O3'          4.9930     7.6500    -1.1160 oh         1 CDF      -0.604800
     15 C2'          4.5740     7.5900    -3.5350 c3         1 CDF       0.086100
     16 O2'          4.1130     8.8860    -3.9240 oh         1 CDF      -0.562800
     17 C1'          3.9030     6.4810    -4.3860 c3         1 CDF       0.319500
     18 N1           4.6610     6.2590    -5.6190 n          1 CDF      -0.366000
     19 C2           4.7800     7.2510    -6.5200 c          1 CDF       0.838900
     20 O2           4.2520     8.3290    -6.2980 o          1 CDF      -0.671500
     21 N3           5.4630     7.0780    -7.6500 nc         1 CDF      -0.797100
     22 C4           6.0460     5.9150    -7.9160 cd         1 CDF       0.275500
     23 N4           6.7500     5.7470    -9.0870 nz         1 CDF      -0.659600
     24 C6           5.2460     5.0500    -5.8470 cc         1 CDF       0.019600
     25 C5           5.9390     4.8550    -6.9940 cd         1 CDF      -0.353600
     26 H5'1         1.8770     5.5180    -1.9540 h1         1 CDF       0.033700
     27 H5'2         2.7700     5.5540    -0.4280 h1         1 CDF       0.033700
     28 H4'          4.9030     5.2580    -1.7350 h1         1 CDF       0.082700
     29 H3'          3.0810     7.6320    -1.9410 h1         1 CDF       0.066700
     30 H1'          2.8790     6.7520    -4.6110 h2         1 CDF       0.097700
     31 HA           4.5680     8.2610    -0.5370 ho         1 CDF       0.400000
     32 H2'          5.6530     7.5190    -3.5910 h1         1 CDF       0.057700
     33 HB           4.6950     9.5430    -3.5790 ho         1 CDF       0.388000
     34 H41N         7.7000     5.5170    -8.8740 hn         1 CDF       0.399800
     35 H42N         6.3390     5.0070    -9.6200 hn         1 CDF       0.399800
     36 H6           5.1500     4.2500    -5.1230 h4         1 CDF       0.189000
     37 H5           6.4110     3.9010    -7.1960 ha         1 CDF       0.109000
     38 H43          6.7220     6.5950    -9.6170 hn         1 CDF       0.399800
@<TRIPOS>BOND
     1     1     2 1
     2     2     3 1
     3     2     4 1
     4     2     5 1
     5     5     6 1
     6     6     7 1
     7     6     8 1
     8     6     9 1
     9     9    10 1
    10    10    11 1
    11    11    12 1
    12    11    13 1
    13    12    17 1
    14    13    14 1
    15    13    15 1
    16    15    16 1
    17    15    17 1
    18    17    18 1
    19    18    19 1
    20    18    24 1
    21    19    20 2
    22    19    21 1
    23    21    22 2
    24    22    23 1
    25    22    25 1
    26    10    26 1
    27    10    27 1
    28    11    28 1
    29    13    29 1
    30    17    30 1
    31    14    31 1
    32    15    32 1
    33    16    33 1
    34    23    34 1
    35    23    35 1
    36    24    25 2
    37    25    37 1
    38    24    36 1
    39    38    23 1
@<TRIPOS>SUBSTRUCTURE
     1 CDF         1 TEMP              0 ****  ****    0 ROOT
