@<TRIPOS>MOLECULE
CDG
   33    34     1     0     0
SMALL
bcc


@<TRIPOS>ATOM
      1 C1         -0.0900   -0.1180   -0.0030 c3        1 CDG      0.343900
      2 C2          1.4410    0.0060   -0.0670 c3        1 CDG      0.098100
      3 C3          2.0010   -0.0310    1.3660 c3        1 CDG      0.121100
      4 C4          1.3370    1.0370    2.2360 c3        1 CDG      0.088100
      5 C5         -0.1930    1.0100    2.1120 c3        1 CDG      0.093100
      6 C6         -0.7660    2.3190    2.6790 c3        1 CDG      0.139400
      7 C7          1.3650    3.3750    2.6280 c3        1 CDG      0.203600
      8 C8          1.6390    3.1670    4.1550 c         1 CDG      0.892600
      9 C9          2.0310    4.6450    2.1210 c3        1 CDG     -0.067100
     10 O1         -0.5990    0.1440   -1.2970 os        1 CDG     -0.402600
     11 O2          1.9280   -1.0980   -0.8150 oh        1 CDG     -0.604800
     12 O3          3.4080    0.1000    1.3070 oh        1 CDG     -0.619800
     13 O4          1.8580    2.2960    1.8170 os        1 CDG     -0.442600
     14 O5         -0.6750    0.9170    0.7710 os        1 CDG     -0.437600
     15 O6         -0.0120    3.4470    2.2650 os        1 CDG     -0.419600
     16 O8A         2.7600    2.6880    4.4690 o         1 CDG     -0.813800
     17 O8B         0.7310    3.4860    4.9660 o         1 CDG     -0.813800
     18 C10        -2.0070   -0.0020   -1.3950 c3        1 CDG      0.125700
     19 H1         -0.4120   -1.1290    0.3740 h2        1 CDG      0.031700
     20 H2          1.7260    0.9690   -0.5710 h1        1 CDG      0.081700
     21 H3          1.8170   -1.0490    1.8120 h1        1 CDG      0.061700
     22 H4          1.6200    0.8700    3.3180 h1        1 CDG      0.100700
     23 H5         -0.5940    0.1270    2.6840 h1        1 CDG      0.028700
     24 H6C1       -0.7790    2.2570    3.8000 h1        1 CDG      0.069700
     25 H6C2       -1.7920    2.5060    2.2680 h1        1 CDG      0.069700
     26 H9C1        1.9120    4.7390    1.0170 hc        1 CDG      0.042700
     27 H9C2        3.1140    4.6000    2.3820 hc        1 CDG      0.042700
     28 H9C3        1.5550    5.5180    2.6240 hc        1 CDG      0.042700
     29 HA          2.8850   -1.1060   -0.6740 ho        1 CDG      0.413000
     30 HB          3.6260    1.0310    1.4600 ho        1 CDG      0.442000
     31 H101       -2.2280    0.2020   -2.4730 h1        1 CDG      0.029367
     32 H102       -2.5290    0.7360   -0.7390 h1        1 CDG      0.029367
     33 H103       -2.3140   -1.0420   -1.1230 h1        1 CDG      0.029367
@<TRIPOS>BOND
     1    1    2 1   
     2    1   10 1   
     3    1   14 1   
     4    1   19 1   
     5    2    3 1   
     6    2   11 1   
     7    2   20 1   
     8    3    4 1   
     9    3   12 1   
    10    3   21 1   
    11    4    5 1   
    12    4   13 1   
    13    4   22 1   
    14    5    6 1   
    15    5   14 1   
    16    5   23 1   
    17    6   15 1   
    18    6   24 1   
    19    6   25 1   
    20    7    8 1   
    21    7    9 1   
    22    7   13 1   
    23    7   15 1   
    24    8   16 1   
    25    8   17 1   
    26    9   26 1   
    27    9   27 1   
    28    9   28 1   
    29   10   18 1   
    30   11   29 1   
    31   12   30 1   
    32   18   31 1   
    33   18   32 1   
    34   18   33 1   
@<TRIPOS>SUBSTRUCTURE
     1 CDG         1 TEMP              0 ****  ****    0 ROOT
