@<TRIPOS>MOLECULE
molecule
   33    34     1     0     0
SMALL
bcc


@<TRIPOS>ATOM
      1 C1           0.0000     0.0000     0.0000 c3         1 CDG       0.314900
      2 C2           1.5300     0.0000     0.0000 c3         1 CDG       0.108100
      3 C3           2.0170     0.0000     1.4350 c3         1 CDG       0.154100
      4 C4           1.3680     1.1570     2.1920 c3         1 CDG       0.089100
      5 C5          -0.1520     1.1180     2.0130 c3         1 CDG       0.067100
      6 C6          -0.7590     2.3390     2.7190 c3         1 CDG       0.122400
      7 C7           1.2430     3.4440     2.4720 c3         1 CDG       0.204600
      8 C8           1.4430     3.1440     3.9350 c          1 CDG       0.850600
      9 C9           1.8980     4.7860     2.1390 c3         1 CDG      -0.051100
     10 O1          -0.4770    -0.0570    -1.3460 os         1 CDG      -0.397600
     11 O2           2.0110    -1.1670    -0.6700 oh         1 CDG      -0.615800
     12 O3           3.4360     0.1570     1.4470 oh         1 CDG      -0.571800
     13 O4           1.8540     2.4160     1.6940 os         1 CDG      -0.380600
     14 O5          -0.4770     1.1890     0.6240 os         1 CDG      -0.408600
     15 O6          -0.1530     3.5210     2.1940 os         1 CDG      -0.403600
     16 O8A          2.5550     2.5170     4.3460 o          1 CDG      -0.825800
     17 O8B          0.6010     3.4690     4.7380 o          1 CDG      -0.825800
     18 C10         -1.9040    -0.0550    -1.2790 c3         1 CDG       0.121700
     19 H1          -0.3580    -0.8620     0.5500 h2         1 CDG       0.024700
     20 H2           1.8920     0.8880    -0.5040 h1         1 CDG       0.085700
     21 H3           1.7460    -0.9370     1.9080 h1         1 CDG       0.033700
     22 H4           1.6060     1.0730     3.2450 h1         1 CDG       0.124700
     23 H5          -0.5520     0.2070     2.4410 h1         1 CDG       0.026700
     24 H6C1        -1.8270     2.3680     2.5380 h1         1 CDG       0.075200
     25 H6C2        -0.5670     2.2740     3.7830 h1         1 CDG       0.075200
     26 H9C1         2.9600     4.7310     2.3480 hc         1 CDG       0.040033
     27 H9C2         1.4500     5.5660     2.7430 hc         1 CDG       0.040033
     28 H9C3         1.7480     5.0100     1.0900 hc         1 CDG       0.040033
     29 HA           2.5430    -0.9110    -1.4050 ho         1 CDG       0.404000
     30 HB           3.8360    -0.6270     1.7870 ho         1 CDG       0.390000
     31 H101        -2.3100    -0.4020    -2.2210 h1         1 CDG       0.029033
     32 H102        -2.2290    -0.7120    -0.4820 h1         1 CDG       0.029033
     33 H103        -2.2550     0.9510    -1.0830 h1         1 CDG       0.029033
@<TRIPOS>BOND
     1     1     2 1
     2     1    10 1
     3     1    14 1
     4     1    19 1
     5     2     3 1
     6     2    11 1
     7     2    20 1
     8     3     4 1
     9     3    12 1
    10     3    21 1
    11     4     5 1
    12     4    13 1
    13     4    22 1
    14     5     6 1
    15     5    14 1
    16     5    23 1
    17     6    15 1
    18     6    24 1
    19     6    25 1
    20     7     8 1
    21     7     9 1
    22     7    13 1
    23     7    15 1
    24     8    16 1
    25     8    17 1
    26     9    26 1
    27     9    27 1
    28     9    28 1
    29    10    18 1
    30    11    29 1
    31    12    30 1
    32    18    31 1
    33    18    32 1
    34    18    33 1
@<TRIPOS>SUBSTRUCTURE
     1 CDG         1 TEMP              0 ****  ****    0 ROOT
