@<TRIPOS>MOLECULE
CDH
   46    45     1     0     0
SMALL
bcc


@<TRIPOS>ATOM
      1 O43          0.0000     0.0000     0.0000 o          1 CDH      -0.882800
      2 C31          1.2250     0.0000     0.0000 c          1 CDH       0.986600
      3 O42          1.9610     0.0500    -1.1370 o          1 CDH      -0.882800
      4 C30          2.0770     0.0000     1.2570 c3         1 CDH      -0.067100
      5 C32          1.8040    -1.2370     2.0780 c2         1 CDH      -0.097400
      6 C37          1.3010    -1.1420     3.3200 c2         1 CDH      -0.201000
      7 C33          2.0900    -2.5830     1.4670 c3         1 CDH       0.045100
      8 N29          3.4880     0.1120     0.9740 ns         1 CDH      -0.109900
      9 C13          4.3670     0.7950     1.8030 c          1 CDH       0.562100
     10 O18          4.0480     1.3660     2.8450 o          1 CDH      -0.673100
     11 C12          5.8050     0.7410     1.2920 c3         1 CDH      -0.051300
     12 C16          6.3470    -0.6840     1.1550 c3         1 CDH       0.098700
     13 S            6.3900    -1.6070     2.7270 sh         1 CDH      -0.410900
     14 N30          6.6340     1.5660     2.1380 ns         1 CDH      -0.181900
     15 C25          7.7080     2.2880     1.6380 c          1 CDH       0.589100
     16 O25          8.0580     2.3050     0.4610 o          1 CDH      -0.643100
     17 C24          8.4130     3.0700     2.7310 c3         1 CDH      -0.106400
     18 C23          9.6000     3.8730     2.2010 c3         1 CDH      -0.022400
     19 C22         10.3180     4.6160     3.3370 c3         1 CDH      -0.012400
     20 C21         11.5580     5.4080     2.8970 c3         1 CDH      -0.190500
     21 N31         11.2060     6.4870     1.9760 nz         1 CDH       0.076400
     22 C20         12.5900     4.5270     2.2220 c          1 CDH       0.955600
     23 O20         13.0230     3.5630     3.0760 o          1 CDH      -0.820300
     24 O21         13.0070     4.6450     1.0790 o          1 CDH      -0.820300
     25 H30          1.7890     0.8600     1.8500 h1         1 CDH       0.045700
     26 H371         1.0930    -0.1680     3.7470 ha         1 CDH       0.079500
     27 H372         1.1110    -2.0380     3.8970 ha         1 CDH       0.079500
     28 H331         2.4840    -2.4490     0.4670 hc         1 CDH       0.006367
     29 H332         2.8170    -3.1080     2.0740 hc         1 CDH       0.006367
     30 H333         1.1740    -3.1600     1.4200 hc         1 CDH       0.006367
     31 H29          3.8470    -0.3180     0.1450 hn         1 CDH       0.196500
     32 H121         5.8130     1.1830     0.3030 h1         1 CDH       0.069700
     33 H161         5.7230    -1.2250     0.4540 h1         1 CDH       0.043700
     34 H162         7.3530    -0.6350     0.7560 h1         1 CDH       0.043700
     35 HS           7.1600    -2.6800     2.5890 hs         1 CDH       0.180800
     36 H30N         6.4270     1.6190     3.1160 hn         1 CDH       0.205500
     37 H241         8.7680     2.3770     3.4850 hc         1 CDH       0.031700
     38 H242         7.7050     3.7510     3.1870 hc         1 CDH       0.031700
     39 H231        10.2990     3.1990     1.7210 hc         1 CDH       0.031200
     40 H232         9.2450     4.5930     1.4740 hc         1 CDH       0.031200
     41 H221         9.6160     5.3040     3.7920 hc         1 CDH       0.033200
     42 H222        10.6210     3.8910     4.0820 hc         1 CDH       0.033200
     43 H211        12.0100     5.8470     3.7780 hx         1 CDH       0.075700
     44 H311        10.9840     6.1020     1.0800 hn         1 CDH       0.209467
     45 H312        11.9790     7.1160     1.8870 hn         1 CDH       0.209467
     46 H313        10.4120     6.9830     2.3320 hn         1 CDH       0.209467
@<TRIPOS>BOND
     1     1     2 1   
     2     2     3 1   
     3     2     4 1   
     4     4     5 1   
     5     4     8 1   
     6     4    25 1   
     7     5     6 2   
     8     5     7 1   
     9     6    26 1   
    10     6    27 1   
    11     7    28 1   
    12     7    29 1   
    13     7    30 1   
    14     8     9 1   
    15     8    31 1   
    16     9    10 2   
    17     9    11 1   
    18    11    12 1   
    19    11    14 1   
    20    11    32 1   
    21    12    13 1   
    22    12    33 1   
    23    12    34 1   
    24    13    35 1   
    25    14    15 1   
    26    14    36 1   
    27    15    16 2   
    28    15    17 1   
    29    17    18 1   
    30    17    37 1   
    31    17    38 1   
    32    18    19 1   
    33    18    39 1   
    34    18    40 1   
    35    19    20 1   
    36    19    41 1   
    37    19    42 1   
    38    20    21 1   
    39    20    22 1   
    40    20    43 1   
    41    21    44 1   
    42    21    45 1   
    43    21    46 1   
    44    22    23 1   
    45    22    24 1   
@<TRIPOS>SUBSTRUCTURE
     1 CDH         1 TEMP              0 ****  ****    0 ROOT
