@<TRIPOS>MOLECULE
molecule
   28    28     1     0     0
SMALL
bcc


@<TRIPOS>ATOM
      1 C4           1.5500     0.0000     0.0000 c3         1 CDI       0.168400
      2 C3           0.0000     0.0000     0.0000 c3         1 CDI       0.166800
      3 OB4         -0.4050     0.0000     1.3820 os         1 CDI      -0.510200
      4 PB          -1.9950    -0.1530     1.5160 p5         1 CDI       1.494500
      5 OB2         -2.3960     0.1320     3.0600 oh         1 CDI      -0.645400
      6 OB3         -2.7360     0.7790     0.6630 o          1 CDI      -0.733300
      7 PA          -3.3610    -1.6160    -0.1080 p5         1 CDI       1.502500
      8 OA3         -2.7530    -0.5520    -1.1480 os         1 CDI      -0.428200
      9 OA1         -3.4530    -3.0690    -0.7950 oh         1 CDI      -0.730400
     10 OA2         -4.7170    -1.1860     0.3100 o          1 CDI      -0.745300
     11 C1          -1.5650    -1.0840    -1.7020 c3         1 CDI       0.065400
     12 C2          -0.4540    -1.2910    -0.6800 c3         1 CDI       0.042100
     13 O1           0.6800    -1.8750    -1.3520 oh         1 CDI      -0.576800
     14 C5          -0.4490     1.2550    -0.7310 c3         1 CDI      -0.133100
     15 O2           2.0270     1.1680     0.6700 oh         1 CDI      -0.600800
     16 OB1         -2.4000    -1.6870     1.1820 os         1 CDI      -0.633800
     17 HC41         1.9110    -0.0030    -1.0210 h1         1 CDI       0.040200
     18 HC42         1.9110    -0.8830     0.5130 h1         1 CDI       0.040200
     19 HB2O        -1.9950    -0.5170     3.6140 ho         1 CDI       0.443000
     20 HA1O        -4.2840    -3.4630    -0.5870 ho         1 CDI       0.486000
     21 HC11        -1.7960    -2.0380    -2.1590 h1         1 CDI       0.086200
     22 HC12        -1.2080    -0.4050    -2.4670 h1         1 CDI       0.086200
     23 HC2         -0.8060    -1.9780     0.0800 h1         1 CDI       0.046700
     24 HO1          0.5960    -2.8140    -1.3530 ho         1 CDI       0.417000
     25 HC51         0.1060     1.3510    -1.6570 hc         1 CDI       0.081700
     26 HC52        -1.5070     1.1870    -0.9500 hc         1 CDI       0.081700
     27 HC53        -0.2640     2.1220    -0.1080 hc         1 CDI       0.081700
     28 HO2          2.9610     1.1070     0.7820 ho         1 CDI       0.407000
@<TRIPOS>BOND
     1     1     2 1
     2     1    15 1
     3     1    17 1
     4     1    18 1
     5     2     3 1
     6     2    12 1
     7     2    14 1
     8     3     4 1
     9     4     5 1
    10     4     6 2
    11     4    16 1
    12     5    19 1
    13     7     8 1
    14     7     9 1
    15     7    10 2
    16     7    16 1
    17     8    11 1
    18     9    20 1
    19    11    12 1
    20    11    21 1
    21    11    22 1
    22    12    13 1
    23    12    23 1
    24    13    24 1
    25    14    25 1
    26    14    26 1
    27    14    27 1
    28    15    28 1
@<TRIPOS>SUBSTRUCTURE
     1 CDI         1 TEMP              0 ****  ****    0 ROOT
