@<TRIPOS>MOLECULE
CDI
   28    28     1     0     0
SMALL
bcc


@<TRIPOS>ATOM
      1 C4          1.5530   -0.1070    0.3010 c3        1 CDI      0.134400
      2 C3          0.0670   -0.0150   -0.1440 c3        1 CDI      0.234800
      3 OB4        -0.6330    0.0910    1.0880 os        1 CDI     -0.665200
      4 PB         -2.1640    0.2210    1.5160 p5        1 CDI      1.755500
      5 OB2        -1.8370    0.4840    3.0370 oh        1 CDI     -0.739400
      6 OB3        -3.1910    0.9490    0.7840 o         1 CDI     -0.825300
      7 PA         -3.7390   -1.3810    0.0560 p5        1 CDI      1.752500
      8 OA3        -2.5730   -0.6420   -0.7810 os        1 CDI     -0.614200
      9 OA1        -3.4660   -2.9120   -0.3120 oh        1 CDI     -0.802400
     10 OA2        -5.1670   -1.1920   -0.0530 o         1 CDI     -0.788300
     11 C1         -1.6470   -1.3120   -1.5950 c3        1 CDI      0.155400
     12 C2         -0.2740   -1.3350   -0.8940 c3        1 CDI      0.083100
     13 O1          0.7400   -1.5040   -1.8750 oh        1 CDI     -0.587800
     14 C5         -0.1060    1.1980   -1.0480 c3        1 CDI     -0.132100
     15 O2          1.9570    1.0360    1.0180 oh        1 CDI     -0.589800
     16 OB1        -2.8540   -1.2030    1.3680 os        1 CDI     -0.690800
     17 HC41        1.6950   -1.0300    0.9220 h1        1 CDI      0.062700
     18 HC42        2.2110   -0.1410   -0.6080 h1        1 CDI      0.062700
     19 HB2O       -0.9850    0.1930    3.3610 ho        1 CDI      0.495000
     20 HA1O       -4.2350   -3.4740   -0.3750 ho        1 CDI      0.488000
     21 HC11       -1.5650   -0.7230   -2.5510 h1        1 CDI      0.069200
     22 HC12       -1.9940   -2.3560   -1.8130 h1        1 CDI      0.069200
     23 HC2        -0.2330   -2.1880   -0.1580 h1        1 CDI      0.053700
     24 HO1         0.5770   -2.3570   -2.2950 ho        1 CDI      0.413000
     25 HC51        0.2310    2.1170   -0.5110 hc        1 CDI      0.068033
     26 HC52        0.5360    1.0470   -1.9500 hc        1 CDI      0.068033
     27 HC53       -1.1630    1.3270   -1.3840 hc        1 CDI      0.068033
     28 HO2         1.3630    1.1230    1.7740 ho        1 CDI      0.403000
@<TRIPOS>BOND
     1    1    2 1   
     2    1   15 1   
     3    1   17 1   
     4    1   18 1   
     5    2    3 1   
     6    2   12 1   
     7    2   14 1   
     8    3    4 1   
     9    4    5 1   
    10    4    6 2   
    11    4   16 1   
    12    5   19 1   
    13    7    8 1   
    14    7    9 1   
    15    7   10 2   
    16    7   16 1   
    17    8   11 1   
    18    9   20 1   
    19   11   12 1   
    20   11   21 1   
    21   11   22 1   
    22   12   13 1   
    23   12   23 1   
    24   13   24 1   
    25   14   25 1   
    26   14   26 1   
    27   14   27 1   
    28   15   28 1   
@<TRIPOS>SUBSTRUCTURE
     1 CDI         1 TEMP              0 ****  ****    0 ROOT
