@<TRIPOS>MOLECULE
molecule
   30    32     1     0     0
SMALL
bcc


@<TRIPOS>ATOM
      1 C1           0.0000     0.0000     0.0000 ca         1 CDJ      -0.145000
      2 C2           1.3880     0.0000     0.0000 ca         1 CDJ      -0.114000
      3 C3           2.0940     0.0000     1.1890 ca         1 CDJ       0.152600
      4 C4           1.3940     0.0000     2.4070 ca         1 CDJ      -0.015800
      5 C5          -0.0190     0.0010     2.3990 ca         1 CDJ      -0.154600
      6 C6          -0.7050     0.0010     1.1840 ca         1 CDJ      -0.064000
      7 N7           3.4880    -0.0020     1.1790 nv         1 CDJ      -0.986200
      8 C11         -0.7290     0.0010     3.6830 c          1 CDJ       0.709100
      9 N12         -0.0120     0.0010     4.8250 ns         1 CDJ      -0.435100
     10 O13         -1.9470     0.0030     3.7170 o          1 CDJ      -0.640500
     11 C14          2.0950    -0.0010     6.0920 ca         1 CDJ      -0.063800
     12 C15          1.3920    -0.0010     7.2990 ca         1 CDJ      -0.106500
     13 C16          2.0800    -0.0080     8.4950 ca         1 CDJ      -0.116500
     14 C17          3.4660    -0.0140     8.5000 ca         1 CDJ       0.034400
     15 C18          4.1680    -0.0140     7.3070 ca         1 CDJ      -0.116500
     16 C19          3.4910    -0.0080     6.1040 ca         1 CDJ      -0.106500
     17 Cl           4.3240    -0.0220    10.0080 cl         1 CDJ      -0.100400
     18 CAI          1.3640     0.0000     4.8080 cc         1 CDJ       0.090400
     19 CAH          2.0710    -0.0010     3.6510 cd         1 CDJ      -0.177200
     20 H1          -0.5350    -0.0000    -0.9420 ha         1 CDJ       0.135000
     21 H2           1.9240    -0.0010    -0.9410 ha         1 CDJ       0.137000
     22 H6          -1.7880     0.0010     1.1710 ha         1 CDJ       0.155000
     23 H71N         3.9900     0.8640     1.1550 hn         1 CDJ       0.428800
     24 H72N         3.9870    -0.8690     1.1540 hn         1 CDJ       0.428800
     25 HAH          3.1540    -0.0020     3.6780 ha         1 CDJ       0.155000
     26 H12         -0.4900     0.0020     5.7040 hn         1 CDJ       0.336500
     27 H15          0.3090     0.0040     7.2960 ha         1 CDJ       0.141000
     28 H19          4.0420    -0.0080     5.1710 ha         1 CDJ       0.141000
     29 H16          1.5360    -0.0080     9.4310 ha         1 CDJ       0.149000
     30 H18          5.2510    -0.0190     7.3170 ha         1 CDJ       0.149000
@<TRIPOS>BOND
     1     1     2 ar
     2     1     6 ar
     3     2     3 ar
     4     3     4 ar
     5     3     7 1
     6     4     5 ar
     7     4    19 1
     8     5     6 ar
     9     5     8 1
    10     8     9 1
    11     8    10 2
    12     9    18 1
    13    11    12 ar
    14    11    16 ar
    15    11    18 1
    16    12    13 ar
    17    13    14 ar
    18    14    15 ar
    19    14    17 1
    20    15    16 ar
    21    18    19 2
    22     1    20 1
    23     2    21 1
    24     6    22 1
    25     7    23 1
    26     7    24 1
    27    19    25 1
    28     9    26 1
    29    12    27 1
    30    16    28 1
    31    13    29 1
    32    15    30 1
@<TRIPOS>SUBSTRUCTURE
     1 CDJ         1 TEMP              0 ****  ****    0 ROOT
