@<TRIPOS>MOLECULE
CDJ
   30    32     1     0     0
SMALL
bcc


@<TRIPOS>ATOM
      1 C1           0.0000     0.0000     0.0000 ca         1 CDJ      -0.122000
      2 C2           1.3880     0.0000     0.0000 ca         1 CDJ      -0.083000
      3 C3           2.0940     0.0000     1.1890 ca         1 CDJ       0.017600
      4 C4           1.3940     0.0000     2.4070 ca         1 CDJ      -0.009800
      5 C5          -0.0190     0.0010     2.3990 ca         1 CDJ      -0.161600
      6 C6          -0.7050     0.0010     1.1840 ca         1 CDJ      -0.026000
      7 N7           3.4880    -0.0020     1.1790 nv         1 CDJ      -0.553200
      8 C11         -0.7290     0.0010     3.6830 c          1 CDJ       0.612100
      9 N12         -0.0120     0.0010     4.8250 ns         1 CDJ       0.031900
     10 O13         -1.9470     0.0030     3.7170 o          1 CDJ      -0.685500
     11 C14          2.0950    -0.0010     6.0920 ca         1 CDJ      -0.058800
     12 C15          1.3920    -0.0010     7.2990 ca         1 CDJ      -0.085500
     13 C16          2.0800    -0.0080     8.4950 ca         1 CDJ      -0.090500
     14 C17          3.4660    -0.0140     8.5000 ca         1 CDJ      -0.031600
     15 C18          4.1680    -0.0140     7.3070 ca         1 CDJ      -0.090500
     16 C19          3.4910    -0.0080     6.1040 ca         1 CDJ      -0.085500
     17 Cl           4.3240    -0.0220    10.0080 cl         1 CDJ      -0.017400
     18 CAI          1.3640     0.0000     4.8080 cc         1 CDJ      -0.062600
     19 CAH          2.0710    -0.0010     3.6510 cd         1 CDJ      -0.160200
     20 H1          -0.5350    -0.0000    -0.9420 ha         1 CDJ       0.106000
     21 H2           1.9240    -0.0010    -0.9410 ha         1 CDJ       0.106000
     22 H6          -1.7880     0.0010     1.1710 ha         1 CDJ       0.125000
     23 H71N         3.9900     0.8640     1.1550 hn         1 CDJ       0.272800
     24 H72N         3.9870    -0.8690     1.1540 hn         1 CDJ       0.272800
     25 HAH          3.1540    -0.0020     3.6780 ha         1 CDJ       0.135000
     26 H12         -0.4900     0.0020     5.7040 hn         1 CDJ       0.178500
     27 H15          0.3090     0.0040     7.2960 ha         1 CDJ       0.115000
     28 H19          4.0420    -0.0080     5.1710 ha         1 CDJ       0.115000
     29 H16          1.5360    -0.0080     9.4310 ha         1 CDJ       0.117500
     30 H18          5.2510    -0.0190     7.3170 ha         1 CDJ       0.117500
@<TRIPOS>BOND
     1     1     2 ar  
     2     1     6 ar  
     3     1    20 1   
     4     2     3 ar  
     5     2    21 1   
     6     3     4 ar  
     7     3     7 1   
     8     4     5 ar  
     9     4    19 1   
    10     5     6 ar  
    11     5     8 1   
    12     6    22 1   
    13     7    23 1   
    14     7    24 1   
    15     8     9 1   
    16     8    10 2   
    17     9    18 1   
    18     9    26 1   
    19    11    12 ar  
    20    11    16 ar  
    21    11    18 1   
    22    12    13 ar  
    23    12    27 1   
    24    13    14 ar  
    25    13    29 1   
    26    14    15 ar  
    27    14    17 1   
    28    15    16 ar  
    29    15    30 1   
    30    16    28 1   
    31    18    19 2   
    32    19    25 1   
@<TRIPOS>SUBSTRUCTURE
     1 CDJ         1 TEMP              0 ****  ****    0 ROOT
