@<TRIPOS>MOLECULE
CDK
   50    52     1     0     0
SMALL
bcc


@<TRIPOS>ATOM
      1 C17          0.0000     0.0000     0.0000 c3         1 CDK       0.062100
      2 C16          1.5060     0.0000     0.0000 cc         1 CDK      -0.100600
      3 N4           2.2210     0.0000     1.1510 n          1 CDK       0.047000
      4 C13          1.5560    -0.0010     2.4560 c3         1 CDK       0.045300
      5 C14          3.5590    -0.0010     1.0520 c          1 CDK       0.645100
      6 O3           4.3610    -0.0010     1.9690 o          1 CDK      -0.604500
      7 S1           3.9120    -0.0010    -0.6330 ss         1 CDK      -0.237200
      8 C15          2.2150    -0.0050    -1.1420 cd         1 CDK      -0.160200
      9 C            1.6910    -0.0120    -2.5210 ca         1 CDK       0.588100
     10 N            0.3770    -0.0130    -2.7480 nb         1 CDK      -0.701000
     11 C12          2.5670    -0.0120    -3.6150 ca         1 CDK      -0.395600
     12 C11          2.0300    -0.0170    -4.8880 ca         1 CDK       0.494200
     13 N3           0.7140    -0.0230    -5.0370 nb         1 CDK      -0.688000
     14 C1          -0.0930    -0.0180    -3.9860 ca         1 CDK       0.707900
     15 N1          -1.4630    -0.0190    -4.1860 nu         1 CDK      -0.292300
     16 C2          -1.9800     0.0910    -5.4800 ca         1 CDK       0.053600
     17 C9          -3.1590    -0.5610    -5.8180 ca         1 CDK      -0.158000
     18 C10         -3.6670    -0.4490    -7.0970 ca         1 CDK       0.027500
     19 C3          -1.3190     0.8590    -6.4300 ca         1 CDK      -0.158000
     20 C4          -1.8310     0.9660    -7.7080 ca         1 CDK       0.027500
     21 C5          -3.0030     0.3110    -8.0420 ca         1 CDK      -0.179500
     22 S           -3.6540     0.4500    -9.6730 sy         1 CDK       1.042200
     23 O1          -2.5580     0.7800   -10.5160 o          1 CDK      -0.590800
     24 O2          -4.4740    -0.6920    -9.8770 o          1 CDK      -0.590800
     25 N2          -4.6660     1.7610    -9.6870 n7         1 CDK      -0.582100
     26 C6          -4.1250     3.1050    -9.4700 c3         1 CDK       0.223800
     27 C7          -5.1630     4.1470    -9.8940 c3         1 CDK       0.199400
     28 O           -6.3060     4.0560    -9.0430 os         1 CDK      -0.422600
     29 C8          -7.3400     4.9910    -9.3550 c3         1 CDK       0.257700
     30 H171        -0.3610     0.0160     1.0210 hc         1 CDK       0.027367
     31 H172        -0.3610     0.8760    -0.5250 hc         1 CDK       0.027367
     32 H173        -0.3610    -0.8930    -0.4960 hc         1 CDK       0.027367
     33 H131         2.3020    -0.0050     3.2420 h1         1 CDK       0.029700
     34 H132         0.9400     0.8860     2.5480 h1         1 CDK       0.029700
     35 H133         0.9340    -0.8830     2.5440 h1         1 CDK       0.029700
     36 H12          3.6400    -0.0070    -3.4660 ha         1 CDK       0.141000
     37 H11          2.6780    -0.0190    -5.7550 h4         1 CDK      -0.012900
     38 H1          -2.0830    -0.0700    -3.4020 hn         1 CDK       0.293800
     39 H9          -3.6800    -1.1570    -5.0780 ha         1 CDK       0.125500
     40 H3          -0.4010     1.3720    -6.1700 ha         1 CDK       0.125500
     41 H10         -4.5850    -0.9590    -7.3610 ha         1 CDK       0.121500
     42 H4          -1.3150     1.5630    -8.4500 ha         1 CDK       0.121500
     43 H2          -5.6410     1.6390    -9.8770 hn         1 CDK       0.358800
     44 H61C        -3.2250     3.2320   -10.0590 h1         1 CDK       0.020200
     45 H62C        -3.8910     3.2350    -8.4200 h1         1 CDK       0.020200
     46 H71C        -4.7320     5.1380    -9.8150 h1         1 CDK      -0.002800
     47 H72C        -5.4600     3.9630   -10.9190 h1         1 CDK      -0.002800
     48 H81C        -8.1710     4.8510    -8.6740 h1         1 CDK      -0.012633
     49 H82C        -7.6760     4.8320   -10.3730 h1         1 CDK      -0.012633
     50 H83C        -6.9580     6.0000    -9.2550 h1         1 CDK      -0.012633
@<TRIPOS>BOND
     1     1     2 1   
     2     1    30 1   
     3     1    31 1   
     4     1    32 1   
     5     2     3 1   
     6     2     8 2   
     7     3     4 1   
     8     3     5 1   
     9     4    33 1   
    10     4    34 1   
    11     4    35 1   
    12     5     6 2   
    13     5     7 1   
    14     7     8 1   
    15     8     9 1   
    16     9    10 ar  
    17     9    11 ar  
    18    10    14 ar  
    19    11    12 ar  
    20    11    36 1   
    21    12    13 ar  
    22    12    37 1   
    23    13    14 ar  
    24    14    15 1   
    25    15    16 1   
    26    15    38 1   
    27    16    17 ar  
    28    16    19 ar  
    29    17    18 ar  
    30    17    39 1   
    31    18    21 ar  
    32    18    41 1   
    33    19    20 ar  
    34    19    40 1   
    35    20    21 ar  
    36    20    42 1   
    37    21    22 1   
    38    22    23 2   
    39    22    24 2   
    40    22    25 1   
    41    25    26 1   
    42    25    43 1   
    43    26    27 1   
    44    26    44 1   
    45    26    45 1   
    46    27    28 1   
    47    27    46 1   
    48    27    47 1   
    49    28    29 1   
    50    29    48 1   
    51    29    49 1   
    52    29    50 1   
@<TRIPOS>SUBSTRUCTURE
     1 CDK         1 TEMP              0 ****  ****    0 ROOT
