@<TRIPOS>MOLECULE
molecule
   50    52     1     0     0
SMALL
bcc


@<TRIPOS>ATOM
      1 C17          0.0000     0.0000     0.0000 c3         1 CDK      -0.034900
      2 C16          1.5060     0.0000     0.0000 cc         1 CDK       0.057400
      3 N4           2.2210     0.0000     1.1510 n          1 CDK      -0.357000
      4 C13          1.5560    -0.0010     2.4560 c3         1 CDK       0.078300
      5 C14          3.5590    -0.0010     1.0520 c          1 CDK       0.688100
      6 O3           4.3610    -0.0010     1.9690 o          1 CDK      -0.576500
      7 S1           3.9120    -0.0010    -0.6330 ss         1 CDK      -0.130200
      8 C15          2.2150    -0.0050    -1.1420 cd         1 CDK      -0.194200
      9 C            1.6910    -0.0120    -2.5210 ca         1 CDK       0.619100
     10 N            0.3770    -0.0130    -2.7480 nb         1 CDK      -0.808000
     11 C12          2.5670    -0.0120    -3.6150 ca         1 CDK      -0.420600
     12 C11          2.0300    -0.0170    -4.8880 ca         1 CDK       0.502200
     13 N3           0.7140    -0.0230    -5.0370 nb         1 CDK      -0.790000
     14 C1          -0.0930    -0.0180    -3.9860 ca         1 CDK       0.940900
     15 N1          -1.4630    -0.0190    -4.1860 nu         1 CDK      -0.758300
     16 C2          -1.9800     0.0910    -5.4800 ca         1 CDK       0.216600
     17 C9          -3.1590    -0.5610    -5.8180 ca         1 CDK      -0.172000
     18 C10         -3.6670    -0.4490    -7.0970 ca         1 CDK      -0.009500
     19 C3          -1.3190     0.8590    -6.4300 ca         1 CDK      -0.172000
     20 C4          -1.8310     0.9660    -7.7080 ca         1 CDK      -0.009500
     21 C5          -3.0030     0.3110    -8.0420 ca         1 CDK      -0.336500
     22 S           -3.6540     0.4500    -9.6730 sy         1 CDK       1.426200
     23 O1          -2.5580     0.7800   -10.5160 o          1 CDK      -0.640300
     24 O2          -4.4740    -0.6920    -9.8770 o          1 CDK      -0.640300
     25 N2          -4.6660     1.7610    -9.6870 n7         1 CDK      -0.913100
     26 C6          -4.1250     3.1050    -9.4700 c3         1 CDK       0.238800
     27 C7          -5.1630     4.1470    -9.8940 c3         1 CDK       0.128400
     28 O           -6.3060     4.0560    -9.0430 os         1 CDK      -0.432600
     29 C8          -7.3400     4.9910    -9.3550 c3         1 CDK       0.129700
     30 H171        -0.3610     0.0160     1.0210 hc         1 CDK       0.063367
     31 H172        -0.3610     0.8760    -0.5250 hc         1 CDK       0.063367
     32 H173        -0.3610    -0.8930    -0.4960 hc         1 CDK       0.063367
     33 H131         2.3020    -0.0050     3.2420 h1         1 CDK       0.060033
     34 H132         0.9400     0.8860     2.5480 h1         1 CDK       0.060033
     35 H133         0.9340    -0.8830     2.5440 h1         1 CDK       0.060033
     36 H12          3.6400    -0.0070    -3.4660 ha         1 CDK       0.156000
     37 H11          2.6780    -0.0190    -5.7550 h4         1 CDK       0.036100
     38 H1          -2.0830    -0.0700    -3.4020 hn         1 CDK       0.467800
     39 H9          -3.6800    -1.1570    -5.0780 ha         1 CDK       0.149500
     40 H3          -0.4010     1.3720    -6.1700 ha         1 CDK       0.149500
     41 H10         -4.5850    -0.9590    -7.3610 ha         1 CDK       0.151500
     42 H4          -1.3150     1.5630    -8.4500 ha         1 CDK       0.151500
     43 H2          -5.6410     1.6390    -9.8770 hn         1 CDK       0.463800
     44 H61C        -3.2250     3.2320   -10.0590 h1         1 CDK       0.055700
     45 H62C        -3.8910     3.2350    -8.4200 h1         1 CDK       0.055700
     46 H71C        -4.7320     5.1380    -9.8150 h1         1 CDK       0.034200
     47 H72C        -5.4600     3.9630   -10.9190 h1         1 CDK       0.034200
     48 H81C        -8.1710     4.8510    -8.6740 h1         1 CDK       0.032033
     49 H82C        -7.6760     4.8320   -10.3730 h1         1 CDK       0.032033
     50 H83C        -6.9580     6.0000    -9.2550 h1         1 CDK       0.032033
@<TRIPOS>BOND
     1     1     2 1
     2     2     3 1
     3     2     8 2
     4     3     4 1
     5     3     5 1
     6     5     6 2
     7     5     7 1
     8     7     8 1
     9     8     9 1
    10     9    10 ar
    11     9    11 ar
    12    10    14 ar
    13    11    12 ar
    14    12    13 ar
    15    13    14 ar
    16    14    15 1
    17    15    16 1
    18    16    17 ar
    19    16    19 ar
    20    17    18 ar
    21    18    21 ar
    22    19    20 ar
    23    20    21 ar
    24    21    22 1
    25    22    23 2
    26    22    24 2
    27    22    25 1
    28    25    26 1
    29    26    27 1
    30    27    28 1
    31    28    29 1
    32     1    30 1
    33     1    31 1
    34     1    32 1
    35     4    33 1
    36     4    34 1
    37     4    35 1
    38    11    36 1
    39    12    37 1
    40    15    38 1
    41    17    39 1
    42    19    40 1
    43    18    41 1
    44    20    42 1
    45    25    43 1
    46    26    44 1
    47    26    45 1
    48    27    46 1
    49    27    47 1
    50    29    48 1
    51    29    49 1
    52    29    50 1
@<TRIPOS>SUBSTRUCTURE
     1 CDK         1 TEMP              0 ****  ****    0 ROOT
