@<TRIPOS>MOLECULE
molecule
   57    58     1     0     0
SMALL
bcc


@<TRIPOS>ATOM
      1 N1           0.0000     0.0000     0.0000 n          1 CDM      -0.321000
      2 C2           1.3450     0.0000     0.0000 c          1 CDM       0.824900
      3 N3           2.0330     0.0000     1.1400 nc         1 CDM      -0.667100
      4 C4           1.4070    -0.0110     2.3090 cd         1 CDM       0.452500
      5 C5          -0.0030    -0.0170     2.3440 cd         1 CDM      -0.421600
      6 C6          -0.6880    -0.0110     1.1760 cc         1 CDM       0.093600
      7 O2           1.9440     0.0100    -1.0620 o          1 CDM      -0.533500
      8 N4           2.1280    -0.0170     3.4810 nz         1 CDM      -0.711600
      9 C1'         -0.7290     0.0060    -1.2700 c3         1 CDM       0.285500
     10 C2'         -0.2980     1.2090    -2.1450 c3         1 CDM       0.080100
     11 O2'         -1.0560     2.3750    -1.8170 oh         1 CDM      -0.596800
     12 C3'         -0.6410     0.7110    -3.5740 c3         1 CDM       0.098100
     13 C4'         -0.6960    -0.8220    -3.4320 c3         1 CDM       0.124100
     14 O4'         -0.3660    -1.1410    -2.0700 os         1 CDM      -0.363600
     15 O3'         -1.9050     1.2280    -3.9930 oh         1 CDM      -0.591800
     16 C5'          0.3190    -1.4690    -4.3770 c3         1 CDM       0.159400
     17 O5'          0.2670    -2.8890    -4.2340 os         1 CDM      -0.535200
     18 PA           1.3540    -3.5000    -5.2510 p5         1 CDM       1.281800
     19 O1A          2.8150    -2.9420    -4.8730 o          1 CDM      -0.717000
     20 O2A          1.0140    -3.0990    -6.6340 o          1 CDM      -0.717000
     21 O3A          1.3480    -5.1050    -5.1420 os         1 CDM      -0.636800
     22 PB           2.4520    -5.6480    -6.1800 p5         1 CDM       1.278800
     23 O1B          3.8940    -5.0540    -5.7880 o          1 CDM      -0.732500
     24 O2B          2.0950    -5.2130    -7.5490 o          1 CDM      -0.732500
     25 O3B          2.5000    -7.2550    -6.1240 os         1 CDM      -0.556200
     26 C1M          3.4910    -7.6730    -7.0620 c3         1 CDM       0.141400
     27 C2M          3.5890    -9.2000    -7.0580 c3         1 CDM       0.127100
     28 O2M          2.3260    -9.7580    -7.4220 oh         1 CDM      -0.612800
     29 C3M          4.6520    -9.6460    -8.0630 c3         1 CDM       0.159800
     30 C4M          4.7500   -11.1740    -8.0580 c3         1 CDM       0.103400
     31 C5M          4.2660    -9.1660    -9.4620 c3         1 CDM      -0.081100
     32 O3M          5.9160    -9.0890    -7.6980 oh         1 CDM      -0.579800
     33 O4M          5.7420   -11.5910    -8.9960 oh         1 CDM      -0.604800
     34 H5          -0.5290    -0.0260     3.2910 ha         1 CDM       0.138000
     35 H6          -1.7710    -0.0130     1.1770 h4         1 CDM       0.179000
     36 H41          1.8880     0.7890     4.0240 hn         1 CDM       0.449467
     37 H42          3.1060     0.0020     3.2700 hn         1 CDM       0.449467
     38 H1'         -1.7990     0.0250    -1.1010 h2         1 CDM       0.083700
     39 H2'          0.7660     1.3920    -2.0480 h1         1 CDM       0.092700
     40 HO'2        -0.4980     3.1340    -1.8540 ho         1 CDM       0.401000
     41 H3'          0.1400     0.9970    -4.2680 h1         1 CDM       0.072700
     42 H4'         -1.6940    -1.1750    -3.6590 h1         1 CDM       0.076700
     43 H3T         -1.8020     1.6830    -4.8130 ho         1 CDM       0.407000
     44 H5'1         1.3140    -1.1180    -4.1340 h1         1 CDM       0.069200
     45 H5'2         0.0820    -1.2000    -5.4000 h1         1 CDM       0.069200
     46 H1M1         3.2170    -7.3320    -8.0530 h1         1 CDM       0.073200
     47 H1M2         4.4500    -7.2490    -6.7870 h1         1 CDM       0.073200
     48 H2M1         3.8630    -9.5410    -6.0670 h1         1 CDM       0.022700
     49 H2M2         1.8440    -9.9800    -6.6430 ho         1 CDM       0.405000
     50 H4M1         3.7920   -11.5970    -8.3330 h1         1 CDM       0.024200
     51 H4M2         5.0240   -11.5150    -7.0670 h1         1 CDM       0.024200
     52 H5M1         4.8760    -9.6740   -10.1990 hc         1 CDM       0.054367
     53 H5M2         4.4280    -8.0970    -9.5340 hc         1 CDM       0.054367
     54 H5M3         3.2210    -9.3850    -9.6440 hc         1 CDM       0.054367
     55 H3M          6.3590    -9.6740    -7.1070 ho         1 CDM       0.391000
     56 H4M          5.8590   -12.5240    -8.9360 ho         1 CDM       0.386000
     57 H43          1.9110    -0.8430     4.0010 hn         1 CDM       0.449467
@<TRIPOS>BOND
     1     1     2 1
     2     1     6 1
     3     1     9 1
     4     2     3 1
     5     2     7 2
     6     3     4 2
     7     4     5 1
     8     4     8 1
     9     5     6 2
    10     5    34 1
    11     6    35 1
    12     8    36 1
    13     8    37 1
    14     9    10 1
    15     9    14 1
    16     9    38 1
    17    10    11 1
    18    10    12 1
    19    10    39 1
    20    11    40 1
    21    12    13 1
    22    12    15 1
    23    12    41 1
    24    13    14 1
    25    13    16 1
    26    13    42 1
    27    15    43 1
    28    16    17 1
    29    16    44 1
    30    16    45 1
    31    17    18 1
    32    18    19 1
    33    18    20 1
    34    18    21 1
    35    21    22 1
    36    22    23 1
    37    22    24 1
    38    22    25 1
    39    25    26 1
    40    26    27 1
    41    26    46 1
    42    26    47 1
    43    27    28 1
    44    27    29 1
    45    27    48 1
    46    28    49 1
    47    29    30 1
    48    29    31 1
    49    29    32 1
    50    30    33 1
    51    30    50 1
    52    30    51 1
    53    31    52 1
    54    31    53 1
    55    31    54 1
    56    32    55 1
    57    33    56 1
    58    57     8 1
@<TRIPOS>SUBSTRUCTURE
     1 CDM         1 TEMP              0 ****  ****    0 ROOT
