@<TRIPOS>MOLECULE
CDM
   56    57     1     0     0
SMALL
bcc


@<TRIPOS>ATOM
      1 N1          0.4970   -0.9500   -1.0580 n         1 CDM     -0.380000
      2 C2          0.2670   -0.6250    0.3260 c         1 CDM      0.829900
      3 N3          1.1890   -1.0090    1.3120 nc        1 CDM     -0.758100
      4 C4          2.2630   -1.7330    0.9410 cd        1 CDM      0.719500
      5 C5          2.5210   -2.0810   -0.4400 cd        1 CDM     -0.432600
      6 C6          1.6130   -1.6780   -1.3920 cc        1 CDM      0.089600
      7 O2         -0.7570    0.0330    0.6270 o         1 CDM     -0.673500
      8 N4          3.1440   -2.2080    1.9170 nh        1 CDM     -0.905800
      9 C1'        -0.4880   -0.5710   -2.0680 c3        1 CDM      0.255500
     10 C2'         0.1110    0.2730   -3.2410 c3        1 CDM      0.110100
     11 O2'        -0.6880    1.4190   -3.4360 oh        1 CDM     -0.601800
     12 C3'         0.1420   -0.6990   -4.4400 c3        1 CDM      0.106100
     13 C4'        -0.6990   -1.9200   -4.0110 c3        1 CDM      0.066100
     14 O4'        -1.1050   -1.7260   -2.6430 os        1 CDM     -0.426600
     15 O3'        -0.4350   -0.0520   -5.5530 oh        1 CDM     -0.655800
     16 C5'         0.0440   -3.2630   -4.1310 c3        1 CDM      0.168400
     17 O5'        -0.2100   -3.8880   -5.3430 os        1 CDM     -0.593200
     18 PA          0.8650   -3.6910   -6.5940 p5        1 CDM      1.605800
     19 O1A         0.7830   -4.9060   -7.4250 o         1 CDM     -0.879000
     20 O2A         0.6120   -2.3010   -7.0370 o         1 CDM     -0.879000
     21 O3A         2.2760   -3.7170   -5.7820 os        1 CDM     -0.833800
     22 PB          3.6330   -3.5900   -4.8910 p5        1 CDM      1.598800
     23 O1B         3.2620   -2.8450   -3.6670 o         1 CDM     -0.878000
     24 O2B         4.8070   -3.2930   -5.7280 o         1 CDM     -0.878000
     25 O3B         3.7630   -5.1950   -4.4800 os        1 CDM     -0.589200
     26 C1M         4.2400   -6.0260   -5.4920 c3        1 CDM      0.175400
     27 C2M         3.6130   -7.4210   -5.3440 c3        1 CDM      0.157100
     28 O2M         2.3210   -7.4110   -4.7720 oh        1 CDM     -0.619800
     29 C3M         3.5490   -8.1970   -6.6880 c3        1 CDM      0.091800
     30 C4M         2.7160   -9.4740   -6.4590 c3        1 CDM      0.101400
     31 C5M         2.9630   -7.3770   -7.8250 c3        1 CDM     -0.142100
     32 O3M         4.8950   -8.5730   -6.9870 oh        1 CDM     -0.606800
     33 O4M         2.8280  -10.3810   -7.5450 oh        1 CDM     -0.633800
     34 H5          3.3960   -2.6640   -0.7550 ha        1 CDM      0.184000
     35 H6          1.7850   -1.9350   -2.4710 h4        1 CDM      0.254000
     36 H41         4.0530   -2.4200    1.5800 hn        1 CDM      0.402800
     37 H42         3.1090   -1.7750    2.8100 hn        1 CDM      0.402800
     38 H1'        -1.3180   -0.0060   -1.5470 h2        1 CDM      0.116700
     39 H2'         1.1350    0.6650   -3.0050 h1        1 CDM      0.084700
     40 HO'2       -1.3770    1.1930   -4.0740 ho        1 CDM      0.421000
     41 H3'         1.2050   -0.9920   -4.6600 h1        1 CDM      0.098700
     42 H4'        -1.6530   -1.9630   -4.6040 h1        1 CDM      0.077700
     43 H3T        -0.1940   -0.5860   -6.3370 ho        1 CDM      0.490000
     44 H5'1        1.1560   -3.1170   -3.9930 h1        1 CDM      0.052200
     45 H5'2       -0.3430   -3.9380   -3.3150 h1        1 CDM      0.052200
     46 H1M1        4.0010   -5.5700   -6.4920 h1        1 CDM      0.037200
     47 H1M2        5.3560   -6.1430   -5.4050 h1        1 CDM      0.037200
     48 H2M1        4.2400   -8.0320   -4.6330 h1        1 CDM      0.043700
     49 H2M2        1.9410   -6.5320   -4.9050 ho        1 CDM      0.442000
     50 H4M1        1.6460   -9.1950   -6.2780 h1        1 CDM      0.061200
     51 H4M2        3.1200  -10.0400   -5.5790 h1        1 CDM      0.061200
     52 H5M1        3.7260   -6.6620   -8.2180 hc        1 CDM      0.061367
     53 H5M2        2.0730   -6.7870   -7.4740 hc        1 CDM      0.061367
     54 H5M3        2.6490   -8.0350   -8.6710 hc        1 CDM      0.061367
     55 H3M         4.8400   -9.1660   -7.7460 ho        1 CDM      0.389000
     56 H4M         2.3970   -9.9680   -8.3020 ho        1 CDM      0.395000
@<TRIPOS>BOND
     1    1    2 1   
     2    1    6 1   
     3    1    9 1   
     4    2    3 1   
     5    2    7 2   
     6    3    4 2   
     7    4    5 1   
     8    4    8 1   
     9    5    6 2   
    10    5   34 1   
    11    6   35 1   
    12    8   36 1   
    13    8   37 1   
    14    9   10 1   
    15    9   14 1   
    16    9   38 1   
    17   10   11 1   
    18   10   12 1   
    19   10   39 1   
    20   11   40 1   
    21   12   13 1   
    22   12   15 1   
    23   12   41 1   
    24   13   14 1   
    25   13   16 1   
    26   13   42 1   
    27   15   43 1   
    28   16   17 1   
    29   16   44 1   
    30   16   45 1   
    31   17   18 1   
    32   18   19 1   
    33   18   20 1   
    34   18   21 1   
    35   21   22 1   
    36   22   23 1   
    37   22   24 1   
    38   22   25 1   
    39   25   26 1   
    40   26   27 1   
    41   26   46 1   
    42   26   47 1   
    43   27   28 1   
    44   27   29 1   
    45   27   48 1   
    46   28   49 1   
    47   29   30 1   
    48   29   31 1   
    49   29   32 1   
    50   30   33 1   
    51   30   50 1   
    52   30   51 1   
    53   31   52 1   
    54   31   53 1   
    55   31   54 1   
    56   32   55 1   
    57   33   56 1   
@<TRIPOS>SUBSTRUCTURE
     1 CDM         1 TEMP              0 ****  ****    0 ROOT
