@<TRIPOS>MOLECULE
molecule
   65    67     1     0     0
SMALL
bcc


@<TRIPOS>ATOM
      1 C1           0.0000     0.0000     0.0000 ca         1 CDO      -0.159300
      2 C2           1.3930     0.0000     0.0000 ca         1 CDO       0.309000
      3 N3           2.0680     0.0000     1.1430 nb         1 CDO      -0.725000
      4 C4           1.4530     0.0090     2.3070 ca         1 CDO       0.451200
      5 C5           0.0710     0.0090     2.3810 ca         1 CDO      -0.160600
      6 C6          -0.6730     0.0040     1.2100 ca         1 CDO      -0.081000
      7 C7          -0.6190     0.0140     3.7210 c3         1 CDO       0.153300
      8 C8           2.1290    -0.0040    -1.2880 ce         1 CDO       0.452200
      9 N9           1.4730    -0.0100    -2.4110 n2         1 CDO      -0.689100
     10 N10          3.5060    -0.0040    -1.2940 nz         1 CDO      -0.794600
     11 N11         -0.8420    -1.3660     4.1600 ns         1 CDO      -0.604900
     12 C12         -1.4490    -1.6090     5.3380 c          1 CDO       0.653100
     13 C13         -1.6770    -3.0270     5.7900 c3         1 CDO       0.078900
     14 O14         -1.8100    -0.6850     6.0360 o          1 CDO      -0.548100
     15 C15         -2.5760    -3.7390     4.8120 c2         1 CDO      -0.216200
     16 C16         -3.6650    -4.1340     5.4090 c2         1 CDO      -0.153200
     17 C17         -3.6320    -3.7380     6.8620 c3         1 CDO       0.120200
     18 N18         -2.3590    -3.0350     7.0930 n          1 CDO      -0.486800
     19 C19         -1.9160    -2.5090     8.2520 c          1 CDO       0.656100
     20 C20         -2.7590    -2.6090     9.4970 c3         1 CDO       0.090500
     21 O21         -0.8380    -1.9540     8.2940 o          1 CDO      -0.574100
     22 N22         -2.1980    -1.7410    10.5400 n7         1 CDO      -0.738200
     23 C23         -0.9060    -2.3260    10.9260 c3         1 CDO      -0.004200
     24 C24         -0.3120    -1.5280    12.0580 c          1 CDO       0.895600
     25 O25          0.8750    -1.8810    12.5760 o          1 CDO      -0.844800
     26 O26         -0.9030    -0.5710    12.4980 o          1 CDO      -0.844800
     27 C27         -2.7710    -4.0580     9.9890 c3         1 CDO      -0.080400
     28 C28         -3.7640    -4.1960    11.1450 c3         1 CDO      -0.058700
     29 C29         -3.9100    -5.6720    11.5190 c3         1 CDO      -0.087900
     30 C30         -4.9030    -5.8090    12.6740 c3         1 CDO      -0.076400
     31 C31         -4.3900    -5.0260    13.8830 c3         1 CDO      -0.082400
     32 C32         -4.2440    -3.5500    13.5100 c3         1 CDO      -0.076400
     33 C33         -3.2500    -3.4120    12.3550 c3         1 CDO      -0.087900
     34 H1          -0.5420     0.1740    -0.9220 ha         1 CDO       0.172000
     35 H4           2.0360     0.0180     3.2190 h4         1 CDO       0.064100
     36 H6          -1.7320     0.2320     1.2410 ha         1 CDO       0.176000
     37 H71         -1.5720     0.5230     3.6350 h1         1 CDO       0.077200
     38 H72          0.0010     0.5280     4.4450 h1         1 CDO       0.077200
     39 HN9          1.9690    -0.0140    -3.2810 hn         1 CDO       0.433400
     40 H101         3.8350    -0.0020    -2.2390 hn         1 CDO       0.468467
     41 H102         3.8420    -0.8220    -0.8260 hn         1 CDO       0.468467
     42 H11         -0.5290    -2.1280     3.5910 hn         1 CDO       0.306500
     43 H13         -0.7320    -3.5510     5.8680 h1         1 CDO       0.079700
     44 H15         -2.3490    -3.8980     3.7650 ha         1 CDO       0.134000
     45 H16         -4.4750    -4.6710     4.9300 ha         1 CDO       0.149000
     46 H171        -3.6820    -4.6230     7.4850 h1         1 CDO       0.065200
     47 H172        -4.4620    -3.0780     7.0810 h1         1 CDO       0.065200
     48 H20         -3.7720    -2.2960     9.2730 h1         1 CDO       0.059700
     49 H22         -2.0520    -0.8240    10.1680 hn         1 CDO       0.371800
     50 H231        -0.2330    -2.3050    10.0770 h1         1 CDO       0.047700
     51 H232        -1.0540    -3.3500    11.2450 h1         1 CDO       0.047700
     52 H271        -3.0670    -4.7120     9.1780 hc         1 CDO       0.046700
     53 H272        -1.7800    -4.3310    10.3300 hc         1 CDO       0.046700
     54 H28         -4.7290    -3.8040    10.8470 hc         1 CDO       0.035700
     55 H291        -4.2750    -6.2250    10.6620 hc         1 CDO       0.062200
     56 H292        -2.9470    -6.0630    11.8240 hc         1 CDO       0.062200
     57 H301        -5.0040    -6.8550    12.9390 hc         1 CDO       0.032950
     58 H302        -5.8650    -5.4140    12.3700 hc         1 CDO       0.032950
     59 H311        -5.0960    -5.1220    14.7000 hc         1 CDO       0.034200
     60 H312        -3.4260    -5.4180    14.1840 hc         1 CDO       0.034200
     61 H321        -5.2070    -3.1580    13.2050 hc         1 CDO       0.032950
     62 H322        -3.8780    -2.9970    14.3670 hc         1 CDO       0.032950
     63 H331        -3.1490    -2.3670    12.0900 hc         1 CDO       0.062200
     64 H332        -2.2880    -3.8080    12.6580 hc         1 CDO       0.062200
     65 H103         3.8420     0.8110    -0.8210 hn         1 CDO       0.468467
@<TRIPOS>BOND
     1     1     2 ar
     2     1     6 ar
     3     1    34 1
     4     2     3 ar
     5     2     8 1
     6     3     4 ar
     7     4     5 ar
     8     4    35 1
     9     5     6 ar
    10     5     7 1
    11     6    36 1
    12     7    11 1
    13     7    37 1
    14     7    38 1
    15     8     9 2
    16     8    10 1
    17     9    39 1
    18    10    40 1
    19    10    41 1
    20    11    12 1
    21    11    42 1
    22    12    13 1
    23    12    14 2
    24    13    15 1
    25    13    18 1
    26    13    43 1
    27    15    16 2
    28    15    44 1
    29    16    17 1
    30    16    45 1
    31    17    18 1
    32    17    46 1
    33    17    47 1
    34    18    19 1
    35    19    20 1
    36    19    21 2
    37    20    22 1
    38    20    27 1
    39    20    48 1
    40    22    23 1
    41    22    49 1
    42    23    24 1
    43    23    50 1
    44    23    51 1
    45    24    25 1
    46    24    26 1
    47    27    28 1
    48    27    52 1
    49    27    53 1
    50    28    29 1
    51    28    33 1
    52    28    54 1
    53    29    30 1
    54    29    55 1
    55    29    56 1
    56    30    31 1
    57    30    57 1
    58    30    58 1
    59    31    32 1
    60    31    59 1
    61    31    60 1
    62    32    33 1
    63    32    61 1
    64    32    62 1
    65    33    63 1
    66    33    64 1
    67    65    10 1
@<TRIPOS>SUBSTRUCTURE
     1 CDO         1 TEMP              0 ****  ****    0 ROOT
