@<TRIPOS>MOLECULE
molecule
   38    39     1     0     0
SMALL
bcc


@<TRIPOS>ATOM
      1 O3B          0.0000     0.0000     0.0000 o          1 CDP      -0.642167
      2 PB           1.6100     0.0000     0.0000 p5         1 CDP       1.297900
      3 O1B          2.1460     0.0000     1.5180 o          1 CDP      -0.642167
      4 O2B          2.1040     1.2080    -0.6980 o          1 CDP      -0.642167
      5 O3A          2.1470    -1.3150    -0.7580 os         1 CDP      -0.708800
      6 PA           2.3310    -1.7170    -2.3060 p5         1 CDP       1.433800
      7 O1A          0.8920    -2.0430    -2.9500 o          1 CDP      -0.838000
      8 O2A          2.9550    -0.5900    -3.0370 o          1 CDP      -0.838000
      9 O5'          3.2760    -3.0160    -2.4150 os         1 CDP      -0.595200
     10 C5'          3.7140    -3.5570    -3.6630 c3         1 CDP       0.234400
     11 C4'          4.5910    -4.7840    -3.4070 c3         1 CDP       0.121100
     12 O4'          3.8020    -5.8370    -2.8300 os         1 CDP      -0.353600
     13 C3'          5.1550    -5.3110    -4.7400 c3         1 CDP       0.090100
     14 O3'          6.5840    -5.2800    -4.7260 oh         1 CDP      -0.595800
     15 C2'          4.6460    -6.7720    -4.8160 c3         1 CDP       0.080100
     16 O2'          5.6640    -7.6420    -5.3160 oh         1 CDP      -0.600800
     17 C1'          4.3320    -7.0840    -3.3320 c3         1 CDP       0.307500
     18 N1           3.3310    -8.1480    -3.2280 n          1 CDP      -0.362000
     19 C2           2.1090    -7.9740    -3.7650 c          1 CDP       0.842900
     20 O2           1.8490    -6.9250    -4.3330 o          1 CDP      -0.634500
     21 N3           1.1810    -8.9250    -3.6860 nc         1 CDP      -0.774100
     22 C4           1.4380   -10.0730    -3.0740 cd         1 CDP       0.270500
     23 N4           0.4720   -11.0490    -3.0000 nz         1 CDP      -0.657600
     24 C5           2.7080   -10.2890    -2.5020 cd         1 CDP      -0.344600
     25 C6           3.6440    -9.3130    -2.5940 cc         1 CDP      -0.010400
     26 H5'1         2.8520    -3.8460    -4.2540 h1         1 CDP       0.038200
     27 H5'2         4.2850    -2.8100    -4.2000 h1         1 CDP       0.038200
     28 H4'          5.4050    -4.5280    -2.7390 h1         1 CDP       0.067700
     29 H3'          4.7660    -4.7330    -5.5700 h1         1 CDP       0.053700
     30 HA           6.8940    -4.7420    -5.4350 ho         1 CDP       0.391000
     31 H2'          3.7480    -6.8330    -5.4180 h1         1 CDP       0.091700
     32 HB           5.4500    -7.9030    -6.1960 ho         1 CDP       0.386000
     33 H1'          5.2380    -7.3510    -2.8010 h2         1 CDP       0.062700
     34 H4N1        -0.3610   -10.7280    -3.4530 hn         1 CDP       0.399467
     35 H4N2         0.8000   -11.8790    -3.4530 hn         1 CDP       0.399467
     36 H5           2.9340   -11.2220    -2.0000 ha         1 CDP       0.095000
     37 H6           4.6270    -9.4550    -2.1620 h4         1 CDP       0.140000
     38 H43          0.2730   -11.2490    -2.0400 hn         1 CDP       0.399467
@<TRIPOS>BOND
     1     1     2 1
     2     2     3 1
     3     2     4 1
     4     2     5 1
     5     5     6 1
     6     6     7 1
     7     6     8 1
     8     6     9 1
     9     9    10 1
    10    10    11 1
    11    10    26 1
    12    10    27 1
    13    11    12 1
    14    11    13 1
    15    11    28 1
    16    12    17 1
    17    13    14 1
    18    13    15 1
    19    13    29 1
    20    14    30 1
    21    15    16 1
    22    15    17 1
    23    15    31 1
    24    16    32 1
    25    17    18 1
    26    17    33 1
    27    18    19 1
    28    18    25 1
    29    19    20 2
    30    19    21 1
    31    21    22 2
    32    22    23 1
    33    22    24 1
    34    23    34 1
    35    23    35 1
    36    24    25 2
    37    24    36 1
    38    25    37 1
    39    38    23 1
@<TRIPOS>SUBSTRUCTURE
     1 CDP         1 TEMP              0 ****  ****    0 ROOT
