@<TRIPOS>MOLECULE
CDQ
   38    41     1     0     0
SMALL
bcc


@<TRIPOS>ATOM
      1 C1           0.0000     0.0000     0.0000 ca         1 CDQ      -0.068600
      2 C2           1.3840     0.0000     0.0000 ca         1 CDQ      -0.071000
      3 C3           2.0810     0.0000     1.1910 ca         1 CDQ      -0.102000
      4 C4           1.3940     0.0000     2.4040 ca         1 CDQ      -0.057400
      5 C5           0.0060     0.0010     2.3900 ca         1 CDQ      -0.162300
      6 C6          -0.6890     0.0010     1.2010 ca         1 CDQ      -0.050000
      7 C7          -0.4340     0.0020     3.8370 c3         1 CDQ      -0.053100
      8 C8           0.8650     0.0020     4.6160 c          1 CDQ       0.616500
      9 O9           0.9810     0.0020     5.8230 o          1 CDQ      -0.638500
     10 N10          1.8650    -0.0000     3.7180 n          1 CDQ       0.035000
     11 C11          3.2850    -0.0000     4.0770 c3         1 CDQ       0.090300
     12 C12          3.8010     1.4160     4.0910 ca         1 CDQ      -0.104300
     13 C13          2.9310     2.4680     3.9070 ca         1 CDQ      -0.131000
     14 C14          3.3980     3.7720     3.9170 ca         1 CDQ      -0.132000
     15 C15          4.7460     4.0320     4.1100 ca         1 CDQ       0.043100
     16 C16          5.6350     2.9810     4.3000 ca         1 CDQ       0.088100
     17 C17          5.1620     1.6620     4.2960 ca         1 CDQ      -0.051600
     18 C18          6.0950     0.5390     4.4980 c          1 CDQ       0.976200
     19 O19          6.2660     0.0200     5.7300 o          1 CDQ      -0.877300
     20 O20          6.7120     0.0830     3.5560 o          1 CDQ      -0.877300
     21 O21          6.9580     3.2150     4.5000 os         1 CDQ      -0.258900
     22 C22          7.4460     4.5090     4.1290 c3         1 CDQ       0.161400
     23 C23          6.4750     5.5640     4.6760 c3         1 CDQ       0.165400
     24 O24          5.1830     5.3210     4.1090 os         1 CDQ      -0.315900
     25 Cl25        -0.8700     0.0080    -1.5020 cl         1 CDQ      -0.055400
     26 H2           1.9230    -0.0010    -0.9400 ha         1 CDQ       0.112000
     27 H3           3.1640    -0.0000     1.1830 ha         1 CDQ       0.134000
     28 H6          -1.7720     0.0010     1.2050 ha         1 CDQ       0.106000
     29 H7          -1.0080    -0.8890     4.0580 hc         1 CDQ       0.045700
     30 H7A         -1.0060     0.8950     4.0570 hc         1 CDQ       0.045700
     31 H11          3.4090    -0.4390     5.0590 h1         1 CDQ       0.066200
     32 H11A         3.8410    -0.5800     3.3500 h1         1 CDQ       0.066200
     33 H13          1.8760     2.2750     3.7590 ha         1 CDQ       0.096000
     34 H14          2.7070     4.5930     3.7710 ha         1 CDQ       0.098000
     35 H22          8.4300     4.6630     4.5550 h1         1 CDQ       0.015200
     36 H22A         7.4940     4.5830     3.0490 h1         1 CDQ       0.015200
     37 H23          6.4130     5.4610     5.7530 h1         1 CDQ       0.015200
     38 H23A         6.8150     6.5470     4.3730 h1         1 CDQ       0.015200
@<TRIPOS>BOND
     1     1     2 ar  
     2     1     6 ar  
     3     1    25 1   
     4     2     3 ar  
     5     2    26 1   
     6     3     4 ar  
     7     3    27 1   
     8     4     5 ar  
     9     4    10 1   
    10     5     6 ar  
    11     5     7 1   
    12     6    28 1   
    13     7     8 1   
    14     7    29 1   
    15     7    30 1   
    16     8     9 2   
    17     8    10 1   
    18    10    11 1   
    19    11    12 1   
    20    11    31 1   
    21    11    32 1   
    22    12    13 ar  
    23    12    17 ar  
    24    13    14 ar  
    25    13    33 1   
    26    14    15 ar  
    27    14    34 1   
    28    15    16 ar  
    29    15    24 1   
    30    16    17 ar  
    31    16    21 1   
    32    17    18 1   
    33    18    19 1   
    34    18    20 1   
    35    21    22 1   
    36    22    23 1   
    37    22    35 1   
    38    22    36 1   
    39    23    24 1   
    40    23    37 1   
    41    23    38 1   
@<TRIPOS>SUBSTRUCTURE
     1 CDQ         1 TEMP              0 ****  ****    0 ROOT
