@<TRIPOS>MOLECULE
molecule
   52    54     1     0     0
SMALL
bcc


@<TRIPOS>ATOM
      1 O23          0.0000     0.0000     0.0000 o          1 CDS      -0.595100
      2 C22          1.2150     0.0000     0.0000 c          1 CDS       0.563800
      3 C24          1.9560     0.0000     1.2840 ce         1 CDS       0.317300
      4 C28          3.4300     0.1280     1.2870 cc         1 CDS       0.383000
      5 N32          4.1290     0.3600     0.1750 nc         1 CDS      -0.766000
      6 C31          5.4160     0.4530     0.3010 cd         1 CDS       0.771300
      7 N33          6.3050     0.6900    -0.7330 nv         1 CDS      -0.986500
      8 S30          5.8590     0.2310     1.9910 ss         1 CDS      -0.292300
      9 C29          4.1610     0.0230     2.4130 cd         1 CDS      -0.161400
     10 N25          1.3100    -0.1140     2.4090 n2         1 CDS      -0.410200
     11 O26         -0.1070    -0.1280     2.4140 os         1 CDS      -0.144300
     12 C27         -0.6820    -0.2570     3.7150 c3         1 CDS       0.130700
     13 N21          1.8890    -0.0040    -1.1670 ns         1 CDS      -0.559900
     14 C7           1.1600    -0.1190    -2.4330 c3         1 CDS       0.000700
     15 C8           0.9100    -1.5740    -2.7380 c          1 CDS       0.568900
     16 O9           1.3010    -2.4260    -1.9770 o          1 CDS      -0.506100
     17 C6           1.9910     0.5020    -3.5570 c3         1 CDS       0.326600
     18 S1           3.5600    -0.4050    -3.7430 ss         1 CDS      -0.366200
     19 N5           1.2680     0.3910    -4.8330 nu         1 CDS      -0.757000
     20 C4           1.9210     0.5880    -6.0440 ce         1 CDS       0.088800
     21 C10          1.0760     0.8000    -7.2170 c          1 CDS       0.840800
     22 O12          1.5780     0.8770    -8.3230 o          1 CDS      -0.713300
     23 O11         -0.2610     0.9110    -7.0750 o          1 CDS      -0.713300
     24 C3           3.2480     0.6040    -6.2460 cf         1 CDS      -0.294200
     25 C2           4.2910     0.4360    -5.1800 c3         1 CDS       0.085900
     26 C13          3.6970     0.7940    -7.5650 cf         1 CDS      -0.124000
     27 C14          4.3210    -0.2190    -8.2220 ce         1 CDS      -0.374200
     28 C15          4.3510    -1.5190    -7.6580 cc         1 CDS      -0.018200
     29 C19          5.0440    -2.5960    -8.1430 cd         1 CDS       0.280600
     30 C20          5.8970    -2.5350    -9.3840 c3         1 CDS      -0.088400
     31 N18          4.8980    -3.6850    -7.4280 nd         1 CDS      -0.674000
     32 C17          4.1410    -3.6160    -6.3830 cc         1 CDS       0.377300
     33 S16          3.5070    -2.0390    -6.2010 ss         1 CDS      -0.361300
     34 H331         7.2490     0.3660    -0.6650 hn         1 CDS       0.454300
     35 H332         5.9910     1.1470    -1.5670 hn         1 CDS       0.454300
     36 H29          3.7720    -0.1620     3.4070 h4         1 CDS       0.195000
     37 H271        -1.7620    -0.2610     3.6340 h1         1 CDS       0.037033
     38 H272        -0.3500    -1.1850     4.1660 h1         1 CDS       0.037033
     39 H273        -0.3690     0.5770     4.3330 h1         1 CDS       0.037033
     40 HN21         2.8820     0.1240    -1.1720 hn         1 CDS       0.369500
     41 H7           0.2130     0.4010    -2.3540 h1         1 CDS       0.105700
     42 H8           0.3350    -1.8520    -3.6130 h4         1 CDS       0.016200
     43 H6           2.1940     1.5440    -3.3400 h2         1 CDS       0.077700
     44 HN5          0.2910     0.1720    -4.8280 hn         1 CDS       0.474800
     45 H21          5.1090    -0.1590    -5.5670 h1         1 CDS       0.074700
     46 H22          4.6580     1.4100    -4.8780 h1         1 CDS       0.074700
     47 H13          2.7290     0.3470    -7.3770 ha         1 CDS       0.379000
     48 H14          5.0860    -0.4850    -7.5030 ha         1 CDS       0.233000
     49 H201         5.3090    -2.1490   -10.2080 hc         1 CDS       0.037367
     50 H202         6.2520    -3.5290    -9.6270 hc         1 CDS       0.037367
     51 H203         6.7440    -1.8820    -9.2080 hc         1 CDS       0.037367
     52 H17          3.9410    -4.4420    -5.7110 h5         1 CDS       0.036100
@<TRIPOS>BOND
     1     1     2 2
     2     2    13 1
     3     2     3 1
     4     3     4 1
     5     3    10 2
     6     4     9 2
     7     4     5 1
     8     5     6 2
     9     6     8 1
    10     6     7 1
    11     7    34 1
    12     7    35 1
    13     8     9 1
    14     9    36 1
    15    10    11 1
    16    11    12 1
    17    12    37 1
    18    12    38 1
    19    12    39 1
    20    13    14 1
    21    13    40 1
    22    14    15 1
    23    14    17 1
    24    14    41 1
    25    15    16 2
    26    15    42 1
    27    17    19 1
    28    17    18 1
    29    17    43 1
    30    18    25 1
    31    19    20 1
    32    19    44 1
    33    20    21 1
    34    20    24 2
    35    21    22 1
    36    21    23 1
    37    24    25 1
    38    24    26 1
    39    25    45 1
    40    25    46 1
    41    26    27 2
    42    26    47 1
    43    27    28 1
    44    27    48 1
    45    28    33 1
    46    28    29 2
    47    29    31 1
    48    29    30 1
    49    30    49 1
    50    30    50 1
    51    30    51 1
    52    31    32 2
    53    32    33 1
    54    32    52 1
@<TRIPOS>SUBSTRUCTURE
     1 CDS         1 TEMP              0 ****  ****    0 ROOT
