@<TRIPOS>MOLECULE
molecule
   24    23     1     0     0
SMALL
bcc


@<TRIPOS>ATOM
      1 NT           0.0000     0.0000     0.0000 nz         1 CDT      -0.667400
      2 CT           1.3480     0.0000     0.0000 c          1 CDT       0.550100
      3 OT           1.9550     0.0000     1.0540 o          1 CDT      -0.521100
      4 N            2.0230    -0.0010    -1.1660 ns         1 CDT      -0.469900
      5 CA           3.4870     0.0000    -1.1650 c3         1 CDT      -0.001300
      6 CB           3.9970     0.7210    -2.4130 c3         1 CDT      -0.070400
      7 CG           3.4870     2.1630    -2.4140 c3         1 CDT       0.002700
      8 SD           4.0930     3.0190    -3.8950 ss         1 CDT      -0.327200
      9 CE           3.3560     4.6550    -3.6380 c3         1 CDT      -0.007000
     10 C            3.9900    -1.4200    -1.1640 c          1 CDT       0.876600
     11 O            3.2650    -2.3880    -1.7450 o          1 CDT      -0.798300
     12 OXT          5.0450    -1.6870    -0.6410 o          1 CDT      -0.798300
     13 HT1         -0.3340    -0.2490     0.9100 hn         1 CDT       0.464800
     14 HT2         -0.3340    -0.6640    -0.6710 hn         1 CDT       0.464800
     15 HN1          1.5230    -0.0300    -2.0330 hn         1 CDT       0.322500
     16 HA           3.8470     0.5110    -0.2810 h1         1 CDT       0.088700
     17 HB1          3.6380     0.2100    -3.2980 hc         1 CDT       0.087200
     18 HB2          5.0810     0.7220    -2.4120 hc         1 CDT       0.087200
     19 HG1          3.8470     2.6740    -1.5300 h1         1 CDT       0.040700
     20 HG2          2.4040     2.1620    -2.4160 h1         1 CDT       0.040700
     21 HE1          2.2770     4.5650    -3.6070 h1         1 CDT       0.056700
     22 HE2          3.6390     5.3110    -4.4530 h1         1 CDT       0.056700
     23 HE3          3.7110     5.0680    -2.7020 h1         1 CDT       0.056700
     24 HT3         -0.3340     0.9170    -0.2230 hn         1 CDT       0.464800
@<TRIPOS>BOND
     1     1     2 1
     2     1    13 1
     3     1    14 1
     4     2     3 2
     5     2     4 1
     6     4     5 1
     7     4    15 1
     8     5     6 1
     9     5    10 1
    10     5    16 1
    11     6     7 1
    12     6    17 1
    13     6    18 1
    14     7     8 1
    15     7    19 1
    16     7    20 1
    17     8     9 1
    18     9    21 1
    19     9    22 1
    20     9    23 1
    21    10    11 1
    22    10    12 1
    23    24     1 1
@<TRIPOS>SUBSTRUCTURE
     1 CDT         1 TEMP              0 ****  ****    0 ROOT
