@<TRIPOS>MOLECULE
CDT
   24    23     1     0     0
SMALL
bcc


@<TRIPOS>ATOM
      1 NT           0.0000     0.0000     0.0000 nz         1 CDT       0.219600
      2 CT           1.3480     0.0000     0.0000 c          1 CDT       0.237100
      3 OT           1.9550     0.0000     1.0540 o          1 CDT      -0.568100
      4 N            2.0230    -0.0010    -1.1660 ns         1 CDT       0.008100
      5 CA           3.4870     0.0000    -1.1650 c3         1 CDT      -0.128300
      6 CB           3.9970     0.7210    -2.4130 c3         1 CDT      -0.006400
      7 CG           3.4870     2.1630    -2.4140 c3         1 CDT       0.064700
      8 SD           4.0930     3.0190    -3.8950 ss         1 CDT      -0.374200
      9 CE           3.3560     4.6550    -3.6380 c3         1 CDT       0.106000
     10 C            3.9900    -1.4200    -1.1640 c          1 CDT       0.960600
     11 O            3.2650    -2.3880    -1.7450 o          1 CDT      -0.843300
     12 OXT          5.0450    -1.6870    -0.6410 o          1 CDT      -0.843300
     13 HT1         -0.3340    -0.2490     0.9100 hn         1 CDT       0.229467
     14 HT2         -0.3340    -0.6640    -0.6710 hn         1 CDT       0.229467
     15 HN1          1.5230    -0.0300    -2.0330 hn         1 CDT       0.167500
     16 HA           3.8470     0.5110    -0.2810 h1         1 CDT       0.072700
     17 HB1          3.6380     0.2100    -3.2980 hc         1 CDT       0.057700
     18 HB2          5.0810     0.7220    -2.4120 hc         1 CDT       0.057700
     19 HG1          3.8470     2.6740    -1.5300 h1         1 CDT       0.017700
     20 HG2          2.4040     2.1620    -2.4160 h1         1 CDT       0.017700
     21 HE1          2.2770     4.5650    -3.6070 h1         1 CDT       0.028700
     22 HE2          3.6390     5.3110    -4.4530 h1         1 CDT       0.028700
     23 HE3          3.7110     5.0680    -2.7020 h1         1 CDT       0.028700
     24 HT3         -0.3340     0.9170    -0.2230 hn         1 CDT       0.229467
@<TRIPOS>BOND
     1     1     2 1   
     2     1    13 1   
     3     1    14 1   
     4     1    24 1   
     5     2     3 2   
     6     2     4 1   
     7     4     5 1   
     8     4    15 1   
     9     5     6 1   
    10     5    10 1   
    11     5    16 1   
    12     6     7 1   
    13     6    17 1   
    14     6    18 1   
    15     7     8 1   
    16     7    19 1   
    17     7    20 1   
    18     8     9 1   
    19     9    21 1   
    20     9    22 1   
    21     9    23 1   
    22    10    11 1   
    23    10    12 1   
@<TRIPOS>SUBSTRUCTURE
     1 CDT         1 TEMP              0 ****  ****    0 ROOT
