@<TRIPOS>MOLECULE
CDU
   54    54     1     0     0
SMALL
bcc


@<TRIPOS>ATOM
      1 C1           0.0000     0.0000     0.0000 c3         1 CDU      -0.017400
      2 C2           1.5300     0.0000     0.0000 c3         1 CDU      -0.027400
      3 C3           2.0380     0.0000     1.4420 c3         1 CDU      -0.017400
      4 C4           1.5280    -1.2490     2.1630 c3         1 CDU      -0.040900
      5 C5          -0.0020    -1.2500     2.1620 c3         1 CDU       0.030700
      6 C6          -0.5100    -1.2490     0.7210 c3         1 CDU      -0.040900
      7 N1          -0.4900    -2.4460     2.8530 ns         1 CDU      -0.215900
      8 C8          -1.6680    -2.4130     3.5070 c          1 CDU       0.580100
      9 O           -2.3250    -1.3900     3.5240 o          1 CDU      -0.707100
     10 N2          -2.1170    -3.5130     4.1420 ns         1 CDU      -0.224900
     11 C11         -3.3970    -3.4780     4.8540 c3         1 CDU       0.065000
     12 C12         -3.6700    -4.8450     5.4810 c3         1 CDU      -0.043400
     13 C13         -5.0070    -4.8080     6.2230 c3         1 CDU      -0.022400
     14 C14         -5.2810    -6.1750     6.8520 c3         1 CDU      -0.029400
     15 C15         -6.6180    -6.1380     7.5940 c3         1 CDU      -0.028400
     16 C16         -6.8910    -7.5050     8.2220 c3         1 CDU      -0.029400
     17 C17         -8.2280    -7.4690     8.9650 c3         1 CDU      -0.029400
     18 C18         -8.5010    -8.8360     9.5930 c3         1 CDU      -0.029400
     19 C19         -9.8380    -8.7990    10.3360 c3         1 CDU      -0.028400
     20 C20        -10.1120   -10.1660    10.9640 c3         1 CDU       0.005900
     21 HC11        -0.3600     0.8840     0.5130 hc         1 CDU       0.015950
     22 HC12        -0.3600    -0.0020    -1.0220 hc         1 CDU       0.015950
     23 HC21         1.8900    -0.8860    -0.5090 hc         1 CDU       0.013200
     24 HC22         1.8900     0.8860    -0.5080 hc         1 CDU       0.013200
     25 HC31         1.6740     0.8840     1.9520 hc         1 CDU       0.015950
     26 HC32         3.1220    -0.0020     1.4420 hc         1 CDU       0.015950
     27 HC41         1.8890    -2.1330     1.6500 hc         1 CDU       0.018450
     28 HC42         1.8880    -1.2460     3.1850 hc         1 CDU       0.018450
     29 HC51        -0.3610    -0.3630     2.6700 h1         1 CDU       0.065700
     30 HC61        -1.5930    -1.2470     0.7210 hc         1 CDU       0.018450
     31 HC62        -0.1460    -2.1330     0.2110 hc         1 CDU       0.018450
     32 HN1          0.0550    -3.2850     2.8460 hn         1 CDU       0.164500
     33 HN2         -1.5750    -4.3540     4.1300 hn         1 CDU       0.165500
     34 H111        -3.3570    -2.7250     5.6320 h1         1 CDU       0.025700
     35 H112        -4.1900    -3.2350     4.1570 h1         1 CDU       0.025700
     36 H121        -2.8770    -5.0870     6.1770 hc         1 CDU       0.015700
     37 H122        -3.7100    -5.5970     4.7030 hc         1 CDU       0.015700
     38 H131        -5.8010    -4.5660     5.5260 hc         1 CDU       0.018700
     39 H132        -4.9680    -4.0540     7.0010 hc         1 CDU       0.018700
     40 H141        -4.4870    -6.4160     7.5490 hc         1 CDU       0.014200
     41 H142        -5.3190    -6.9280     6.0750 hc         1 CDU       0.014200
     42 H151        -7.4110    -5.8970     6.8960 hc         1 CDU       0.015700
     43 H152        -6.5790    -5.3850     8.3710 hc         1 CDU       0.015700
     44 H161        -6.9300    -8.2590     7.4450 hc         1 CDU       0.014200
     45 H162        -6.0980    -7.7470     8.9190 hc         1 CDU       0.014200
     46 H171        -9.0210    -7.2260     8.2680 hc         1 CDU       0.014700
     47 H172        -8.1880    -6.7160     9.7430 hc         1 CDU       0.014700
     48 H181        -7.7080    -9.0790    10.2900 hc         1 CDU       0.014700
     49 H182        -8.5410    -9.5890     8.8150 hc         1 CDU       0.014700
     50 H191        -9.7990    -8.0460    11.1130 hc         1 CDU       0.012200
     51 H192       -10.6320    -8.5580     9.6390 hc         1 CDU       0.012200
     52 H201       -10.1510   -10.9200    10.1870 hc         1 CDU       0.000367
     53 H202        -9.3190   -10.4080    11.6620 hc         1 CDU       0.000367
     54 H203       -11.0590   -10.1390    11.4900 hc         1 CDU       0.000367
@<TRIPOS>BOND
     1     1     2 1   
     2     1     6 1   
     3     1    21 1   
     4     1    22 1   
     5     2     3 1   
     6     2    23 1   
     7     2    24 1   
     8     3     4 1   
     9     3    25 1   
    10     3    26 1   
    11     4     5 1   
    12     4    27 1   
    13     4    28 1   
    14     5     6 1   
    15     5     7 1   
    16     5    29 1   
    17     6    30 1   
    18     6    31 1   
    19     7     8 1   
    20     7    32 1   
    21     8     9 2   
    22     8    10 1   
    23    10    11 1   
    24    10    33 1   
    25    11    12 1   
    26    11    34 1   
    27    11    35 1   
    28    12    13 1   
    29    12    36 1   
    30    12    37 1   
    31    13    14 1   
    32    13    38 1   
    33    13    39 1   
    34    14    15 1   
    35    14    40 1   
    36    14    41 1   
    37    15    16 1   
    38    15    42 1   
    39    15    43 1   
    40    16    17 1   
    41    16    44 1   
    42    16    45 1   
    43    17    18 1   
    44    17    46 1   
    45    17    47 1   
    46    18    19 1   
    47    18    48 1   
    48    18    49 1   
    49    19    20 1   
    50    19    50 1   
    51    19    51 1   
    52    20    52 1   
    53    20    53 1   
    54    20    54 1   
@<TRIPOS>SUBSTRUCTURE
     1 CDU         1 TEMP              0 ****  ****    0 ROOT
