@<TRIPOS>MOLECULE
CDX
   35    36     1     0     0
SMALL
bcc


@<TRIPOS>ATOM
      1 OAO          0.0000     0.0000     0.0000 o          1 CDX      -0.631500
      2 CAP          1.2120     0.0000     0.0000 c          1 CDX       0.616000
      3 NAI          1.8830     0.0000     1.1680 ns         1 CDX      -0.147500
      4 CAC          3.2280     0.0060     1.1790 c          1 CDX       0.616000
      5 OAB          3.8230     0.0110     2.2350 o          1 CDX      -0.631500
      6 CAD          3.9970     0.0050    -0.1150 c3         1 CDX       0.056300
      7 CAQ          1.9620    -0.0000    -1.3050 c3         1 CDX       0.056300
      8 NAJ          3.2330    -0.7170    -1.1420 n3         1 CDX      -0.493600
      9 CAK          3.9710    -0.5610    -2.4030 c3         1 CDX       0.140800
     10 CAL          3.2270    -1.2930    -3.5200 c3         1 CDX       0.105500
     11 CAE          3.9940    -1.1310    -4.8340 c3         1 CDX      -0.049100
     12 NAM          3.1210    -2.7190    -3.1870 n3         1 CDX      -0.489600
     13 CAR          4.4470    -3.3060    -3.4150 c3         1 CDX       0.039800
     14 CAS          4.3810    -4.7970    -3.2240 c          1 CDX       0.617500
     15 OAT          5.3490    -5.3970    -2.8090 o          1 CDX      -0.632000
     16 NAN          3.2490    -5.4670    -3.5130 ns         1 CDX      -0.149500
     17 CAG          2.1700    -4.8110    -3.9800 c          1 CDX       0.617500
     18 CAF          2.2180    -3.3190    -4.1770 c3         1 CDX       0.039800
     19 OAH          1.1570    -5.4230    -4.2420 o          1 CDX      -0.632000
     20 HAI          1.3780    -0.0040     2.0320 hn         1 CDX       0.200500
     21 HAD1         4.1570     1.0270    -0.4390 h1         1 CDX       0.044950
     22 HAD2         4.9520    -0.4850     0.0340 h1         1 CDX       0.044950
     23 HAQ1         1.3660    -0.4950    -2.0620 h1         1 CDX       0.044950
     24 HAQ2         2.1620     1.0210    -1.6050 h1         1 CDX       0.044950
     25 HAK1         4.0480     0.4910    -2.6490 h1         1 CDX       0.024200
     26 HAK2         4.9640    -0.9810    -2.2950 h1         1 CDX       0.024200
     27 HAL          2.2340    -0.8730    -3.6280 h1         1 CDX       0.049700
     28 HAE1         5.0580    -1.1570    -4.6360 hc         1 CDX       0.021700
     29 HAE2         3.7320    -1.9390    -5.5070 hc         1 CDX       0.021700
     30 HAE3         3.7340    -0.1830    -5.2890 hc         1 CDX       0.021700
     31 HAR1         4.7680    -3.0870    -4.4260 h1         1 CDX       0.052450
     32 HAR2         5.1530    -2.8840    -2.7090 h1         1 CDX       0.052450
     33 HAN          3.2090    -6.4580    -3.3790 hn         1 CDX       0.200500
     34 HAF1         1.2230    -2.9080    -4.0510 h1         1 CDX       0.052450
     35 HAF2         2.5800    -3.0990    -5.1740 h1         1 CDX       0.052450
@<TRIPOS>BOND
     1     1     2 2   
     2     2     3 1   
     3     2     7 1   
     4     3     4 1   
     5     3    20 1   
     6     4     5 2   
     7     4     6 1   
     8     6     8 1   
     9     6    21 1   
    10     6    22 1   
    11     7     8 1   
    12     7    23 1   
    13     7    24 1   
    14     8     9 1   
    15     9    10 1   
    16     9    25 1   
    17     9    26 1   
    18    10    11 1   
    19    10    12 1   
    20    10    27 1   
    21    11    28 1   
    22    11    29 1   
    23    11    30 1   
    24    12    13 1   
    25    12    18 1   
    26    13    14 1   
    27    13    31 1   
    28    13    32 1   
    29    14    15 2   
    30    14    16 1   
    31    16    17 1   
    32    16    33 1   
    33    17    18 1   
    34    17    19 2   
    35    18    34 1   
    36    18    35 1   
@<TRIPOS>SUBSTRUCTURE
     1 CDX         1 TEMP              0 ****  ****    0 ROOT
