@<TRIPOS>MOLECULE
CDY
   30    32     1     0     0
SMALL
bcc


@<TRIPOS>ATOM
      1 O5'          0.0000     0.0000     0.0000 oh         1 CDY      -0.580800
      2 C5'          1.4290     0.0000     0.0000 c3         1 CDY       0.223400
      3 C4'          1.9380     0.0000     1.4420 c3         1 CDY       0.175100
      4 O4'          1.5880    -1.2330     2.1060 os         1 CDY      -0.388600
      5 C3'          3.4880    -0.0010     1.4720 c3         1 CDY      -0.057400
      6 C2'          3.7850    -0.6270     2.8570 c3         1 CDY      -0.072400
      7 C1'          2.4930    -1.3850     3.2140 c3         1 CDY       0.158800
      8 N9           2.7880    -2.8040     3.4250 na         1 CDY       0.203000
      9 C8           2.7710    -3.7810     2.4750 cc         1 CDY       0.268700
     10 N7           3.0830    -4.9250     3.0080 nd         1 CDY      -0.494100
     11 C5           3.3250    -4.7550     4.3300 ca         1 CDY      -0.212200
     12 C4           3.1330    -3.3920     4.6140 ca         1 CDY       0.253800
     13 N3           3.3070    -2.9610     5.8590 nb         1 CDY      -0.634000
     14 C2           3.6490    -3.7980     6.8170 ca         1 CDY       0.650000
     15 Cl           3.8630    -3.1830     8.4270 cl         1 CDY      -0.061000
     16 N1           3.8370    -5.0880     6.5990 nb         1 CDY      -0.684000
     17 C6           3.6850    -5.6090     5.3870 ca         1 CDY       0.597200
     18 N6           3.8830    -6.9610     5.1670 nv         1 CDY      -0.547500
     19 HO5         -0.3140     0.1300    -0.8790 ho         1 CDY       0.392000
     20 HC51         1.7910    -0.8850    -0.5110 h1         1 CDY      -0.005800
     21 HC52         1.7910     0.8850    -0.5100 h1         1 CDY      -0.005800
     22 H4'          1.5490     0.8490     1.9900 h1         1 CDY       0.032700
     23 HC31         3.8870    -0.6190     0.6770 hc         1 CDY       0.030200
     24 HC32         3.8740     1.0100     1.4170 hc         1 CDY       0.030200
     25 HC21         4.6190    -1.3150     2.7890 hc         1 CDY       0.038200
     26 HC22         3.9820     0.1480     3.5870 hc         1 CDY       0.038200
     27 H1'          2.0530    -0.9580     4.1070 h2         1 CDY       0.053700
     28 HC8          2.5330    -3.6270     1.4290 h5         1 CDY       0.040800
     29 HN61         3.4460    -7.6330     5.7650 hn         1 CDY       0.278300
     30 HN62         4.5010    -7.2640     4.4410 hn         1 CDY       0.278300
@<TRIPOS>BOND
     1     1     2 1   
     2     1    19 1   
     3     2     3 1   
     4     2    20 1   
     5     2    21 1   
     6     3     4 1   
     7     3     5 1   
     8     3    22 1   
     9     4     7 1   
    10     5     6 1   
    11     5    23 1   
    12     5    24 1   
    13     6     7 1   
    14     6    25 1   
    15     6    26 1   
    16     7     8 1   
    17     7    27 1   
    18     8     9 1   
    19     8    12 1   
    20     9    10 2   
    21     9    28 1   
    22    10    11 1   
    23    11    12 ar  
    24    11    17 ar  
    25    12    13 ar  
    26    13    14 ar  
    27    14    15 1   
    28    14    16 ar  
    29    16    17 ar  
    30    17    18 1   
    31    18    29 1   
    32    18    30 1   
@<TRIPOS>SUBSTRUCTURE
     1 CDY         1 TEMP              0 ****  ****    0 ROOT
