@<TRIPOS>MOLECULE
CDZ
   65    65     1     0     0
SMALL
bcc


@<TRIPOS>ATOM
      1 CAC         0.1680    0.1920    0.3230 c3        1 CDZ     -0.065650
      2 CAT         1.5730   -0.1940    0.0410 c2        1 CDZ     -0.094400
      3 CAD         2.3990   -0.5130    1.2330 c3        1 CDZ     -0.065650
      4 CAN         2.0870   -0.2520   -1.1970 c2        1 CDZ     -0.199200
      5 CAQ         1.3370    0.0110   -2.4460 c3        1 CDZ     -0.028700
      6 CBC         1.8740    1.2260   -3.2310 c3        1 CDZ     -0.103800
      7 CAR         1.1270    1.2760   -4.5800 c3        1 CDZ     -0.028700
      8 CAO         1.4480    2.4830   -5.3740 c2        1 CDZ     -0.199200
      9 CAU         2.0360    2.4850   -6.5800 c2        1 CDZ     -0.094400
     10 CAF         2.4860    1.2500   -7.2680 c3        1 CDZ     -0.065650
     11 CAE         2.2790    3.7520   -7.3140 c3        1 CDZ     -0.065650
     12 CAW         3.3440    1.0430   -3.4770 c2        1 CDZ      0.192900
     13 OAJ         3.5990   -0.1090   -4.1690 oh        1 CDZ     -0.487100
     14 CAY         1.5380    2.5000   -2.4580 c         1 CDZ      0.625300
     15 OAL         0.3650    2.6530   -2.0790 o         1 CDZ     -0.564100
     16 CBA         2.5940    3.4690   -2.1790 ce        1 CDZ     -0.443400
     17 CAV         2.2340    4.7910   -1.6350 c         1 CDZ      0.618300
     18 OAI         2.9410    5.3350   -0.7690 o         1 CDZ     -0.587100
     19 CBB         1.0380    5.5130   -2.2180 c3        1 CDZ     -0.159700
     20 CAH         0.4750    6.5090   -1.2250 c3        1 CDZ     -0.086100
     21 CAG         1.4570    6.2110   -3.4980 c3        1 CDZ     -0.086100
     22 CAX         3.9150    3.1230   -2.3780 cf        1 CDZ      0.325100
     23 OAK         4.9730    3.8960   -2.0120 oh        1 CDZ     -0.495100
     24 CAZ         4.3160    1.9000   -3.0530 cf        1 CDZ     -0.239200
     25 CAP         5.7690    1.6350   -3.2650 c3        1 CDZ      0.006000
     26 CAM         6.1980    1.9360   -4.6550 c2        1 CDZ     -0.197200
     27 CAS         7.1180    2.8510   -4.9950 c2        1 CDZ     -0.089400
     28 CAB         7.8170    3.7090   -4.0070 c3        1 CDZ     -0.066400
     29 CAA         7.5010    3.0680   -6.4120 c3        1 CDZ     -0.066400
     30 HAC        -0.5310   -0.6050   -0.0360 hc        1 CDZ      0.044700
     31 HACA       -0.0900    1.1480   -0.2020 hc        1 CDZ      0.044700
     32 HACB        0.0020    0.3360    1.4180 hc        1 CDZ      0.044700
     33 HAD         3.4290   -0.8410    0.9490 hc        1 CDZ      0.044700
     34 HADA        2.4830    0.3890    1.8900 hc        1 CDZ      0.044700
     35 HADB        1.9170   -1.3320    1.8230 hc        1 CDZ      0.044700
     36 HAN         3.1430   -0.5350   -1.3480 ha        1 CDZ      0.123000
     37 HAQ         1.4200   -0.8920   -3.1110 hc        1 CDZ      0.068700
     38 HAQA        0.2480    0.1940   -2.2380 hc        1 CDZ      0.068700
     39 HAR         1.3660    0.3360   -5.1470 hc        1 CDZ      0.068700
     40 HARA        0.0250    1.2760   -4.3550 hc        1 CDZ      0.068700
     41 HAO         1.1430    3.4340   -4.9020 ha        1 CDZ      0.123000
     42 HAF         3.1140    0.6260   -6.5820 hc        1 CDZ      0.044700
     43 HAFA        1.6040    0.6390   -7.5850 hc        1 CDZ      0.044700
     44 HAFB        3.0890    1.4910   -8.1770 hc        1 CDZ      0.044700
     45 HAE         1.7410    3.7350   -8.2940 hc        1 CDZ      0.044700
     46 HAEA        1.9280    4.6400   -6.7320 hc        1 CDZ      0.044700
     47 HAEB        3.3720    3.8740   -7.5170 hc        1 CDZ      0.044700
     48 HBB         0.2330    4.7630   -2.4620 hc        1 CDZ      0.095700
     49 HAH         1.2570    7.2520   -0.9310 hc        1 CDZ      0.041033
     50 HAHA       -0.3890    7.0520   -1.6770 hc        1 CDZ      0.041033
     51 HAHB        0.1290    5.9810   -0.3050 hc        1 CDZ      0.041033
     52 HAG         2.2560    6.9640   -3.2910 hc        1 CDZ      0.041033
     53 HAGA        0.5790    6.7400   -3.9410 hc        1 CDZ      0.041033
     54 HAGB        1.8420    5.4730   -4.2420 hc        1 CDZ      0.041033
     55 HOAK        4.6770    4.6750   -1.5080 ho        1 CDZ      0.468000
     56 HAP         5.9860    0.5500   -3.0450 hc        1 CDZ      0.061700
     57 HAPA        6.3720    2.2290   -2.5240 hc        1 CDZ      0.061700
     58 HAM         5.6920    1.3440   -5.4360 ha        1 CDZ      0.111000
     59 HAB         7.0830    4.1760   -3.3010 hc        1 CDZ      0.045700
     60 HABA        8.5400    3.1000   -3.4080 hc        1 CDZ      0.045700
     61 HABB        8.3860    4.5260   -4.5150 hc        1 CDZ      0.045700
     62 HAA         7.2450    4.1130   -6.7200 hc        1 CDZ      0.045700
     63 HAAA        8.6040    2.9280   -6.5360 hc        1 CDZ      0.045700
     64 HAAB        6.9760    2.3600   -7.0990 hc        1 CDZ      0.045700
     65 H36         4.5510   -0.1760   -4.3470 ho        1 CDZ      0.435000
@<TRIPOS>BOND
     1    1    2 1   
     2    1   30 1   
     3    1   31 1   
     4    1   32 1   
     5    2    3 1   
     6    2    4 2   
     7    3   33 1   
     8    3   34 1   
     9    3   35 1   
    10    4    5 1   
    11    4   36 1   
    12    5    6 1   
    13    5   37 1   
    14    5   38 1   
    15    6    7 1   
    16    6   12 1   
    17    6   14 1   
    18    7    8 1   
    19    7   39 1   
    20    7   40 1   
    21    8    9 2   
    22    8   41 1   
    23    9   10 1   
    24    9   11 1   
    25   10   42 1   
    26   10   43 1   
    27   10   44 1   
    28   11   45 1   
    29   11   46 1   
    30   11   47 1   
    31   12   13 1   
    32   12   24 2   
    33   13   65 1   
    34   14   15 2   
    35   14   16 1   
    36   16   17 1   
    37   16   22 2   
    38   17   18 2   
    39   17   19 1   
    40   19   20 1   
    41   19   21 1   
    42   19   48 1   
    43   20   49 1   
    44   20   50 1   
    45   20   51 1   
    46   21   52 1   
    47   21   53 1   
    48   21   54 1   
    49   22   23 1   
    50   22   24 1   
    51   23   55 1   
    52   24   25 1   
    53   25   26 1   
    54   25   56 1   
    55   25   57 1   
    56   26   27 2   
    57   26   58 1   
    58   27   28 1   
    59   27   29 1   
    60   28   59 1   
    61   28   60 1   
    62   28   61 1   
    63   29   62 1   
    64   29   63 1   
    65   29   64 1   
@<TRIPOS>SUBSTRUCTURE
     1 CDZ         1 TEMP              0 ****  ****    0 ROOT
