@<TRIPOS>MOLECULE
molecule
   65    65     1     0     0
SMALL
bcc


@<TRIPOS>ATOM
      1 CAC          0.0000     0.0000     0.0000 c3         1 CDZ      -0.100150
      2 CAT          1.5070     0.0000     0.0000 c2         1 CDZ       0.068600
      3 CAD          2.2600     0.0000     1.3050 c3         1 CDZ      -0.100150
      4 CAN          2.1620    -0.0000    -1.1340 c2         1 CDZ      -0.546200
      5 CAQ          1.4080     0.0000    -2.4400 c3         1 CDZ      -0.080200
      6 CBC          1.8710     1.1810    -3.2950 c3         1 CDZ      -0.124800
      7 CAR          1.0810     1.1420    -4.6050 c3         1 CDZ      -0.080200
      8 CAO          1.5050     2.2920    -5.4820 c2         1 CDZ      -0.546200
      9 CAU          2.0150     2.0590    -6.6660 c2         1 CDZ       0.068600
     10 CAF          2.2160     0.6410    -7.1340 c3         1 CDZ      -0.100150
     11 CAE          2.4030     3.2100    -7.5580 c3         1 CDZ      -0.100150
     12 CAW          3.3300     0.9700    -3.6270 c2         1 CDZ       0.119900
     13 OAJ          3.7270    -0.1420    -4.2740 oh         1 CDZ      -0.512100
     14 CAY          1.4950     2.4560    -2.5670 c          1 CDZ       0.658300
     15 OAL          0.3420     2.6900    -2.2680 o          1 CDZ      -0.538100
     16 CBA          2.5330     3.3640    -2.2450 ce         1 CDZ      -0.347400
     17 CAV          2.2300     4.5640    -1.5660 c          1 CDZ       0.595300
     18 OAI          2.6740     4.7610    -0.4530 o          1 CDZ      -0.514100
     19 CBB          1.3530     5.6000    -2.2220 c3         1 CDZ      -0.168700
     20 CAH          0.6750     6.4500    -1.1460 c3         1 CDZ      -0.080600
     21 CAG          2.2080     6.4980    -3.1190 c3         1 CDZ      -0.080600
     22 CAX          3.8620     3.0780    -2.5980 cf         1 CDZ       0.267100
     23 OAK          4.8210     3.9690    -2.2740 oh         1 CDZ      -0.508100
     24 CAZ          4.2310     1.9100    -3.2680 cf         1 CDZ      -0.078200
     25 CAP          5.6840     1.6920    -3.6040 c3         1 CDZ      -0.047000
     26 CAM          6.0020     2.3560    -4.9190 c2         1 CDZ      -0.503200
     27 CAS          6.9230     3.2850    -4.9780 c2         1 CDZ       0.043600
     28 CAB          7.6890     3.6660    -3.7380 c3         1 CDZ      -0.097900
     29 CAA          7.2170     3.9720    -6.2870 c3         1 CDZ      -0.097900
     30 HAC         -0.3610    -0.8240    -0.6030 hc         1 CDZ       0.056450
     31 HACA        -0.3610    -0.1100     1.0150 hc         1 CDZ       0.056450
     32 HACB        -0.3610     0.9350    -0.4120 hc         1 CDZ       0.056450
     33 HAD          1.9640     0.8610     1.8930 hc         1 CDZ       0.056450
     34 HADA         3.3240     0.0460     1.1080 hc         1 CDZ       0.056450
     35 HADB         2.0330    -0.9070     1.8530 hc         1 CDZ       0.056450
     36 HAN          1.6960    -0.8750    -1.5720 ha         1 CDZ       0.333500
     37 HAQ          0.3470     0.0900    -2.2440 hc         1 CDZ       0.058200
     38 HAQA         1.6010    -0.9260    -2.9680 hc         1 CDZ       0.058200
     39 HAR          1.2750     0.2070    -5.1160 hc         1 CDZ       0.058200
     40 HARA         0.0220     1.2230    -4.3910 hc         1 CDZ       0.058200
     41 HAO          2.1960     1.7020    -4.8920 ha         1 CDZ       0.333500
     42 HAF          1.3080     0.0740    -6.9680 hc         1 CDZ       0.056450
     43 HAFA         2.4530     0.6410    -8.1910 hc         1 CDZ       0.056450
     44 HAFB         3.0300     0.1900    -6.5810 hc         1 CDZ       0.056450
     45 HAE          3.3950     3.0400    -7.9570 hc         1 CDZ       0.056450
     46 HAEA         2.3970     4.1300    -6.9850 hc         1 CDZ       0.056450
     47 HAEB         1.6940     3.2890    -8.3740 hc         1 CDZ       0.056450
     48 HBB          0.5970     5.1070    -2.8210 hc         1 CDZ       0.091700
     49 HAH          1.4220     7.0420    -0.6290 hc         1 CDZ       0.039033
     50 HAHA        -0.0490     7.1090    -1.6090 hc         1 CDZ       0.039033
     51 HAHB         0.1740     5.8030    -0.4360 hc         1 CDZ       0.039033
     52 HAG          2.5490     5.9310    -3.9770 hc         1 CDZ       0.039033
     53 HAGA         3.0640     6.8560    -2.5600 hc         1 CDZ       0.039033
     54 HAGB         1.6170     7.3410    -3.4550 hc         1 CDZ       0.039033
     55 HOAK         4.6230     4.8010    -2.6700 ho         1 CDZ       0.441000
     56 HAP          5.8820     0.6290    -3.6790 hc         1 CDZ       0.048700
     57 HAPA         6.3030     2.1200    -2.8240 hc         1 CDZ       0.048700
     58 HAM          6.6020     1.5660    -4.4840 ha         1 CDZ       0.323000
     59 HAB          7.0340     4.1980    -3.0580 hc         1 CDZ       0.055367
     60 HABA         8.0620     2.7710    -3.2540 hc         1 CDZ       0.055367
     61 HABB         8.5220     4.3040    -4.0100 hc         1 CDZ       0.055367
     62 HAA          6.7680     4.9570    -6.2870 hc         1 CDZ       0.055367
     63 HAAA         6.8070     3.3880    -7.1010 hc         1 CDZ       0.055367
     64 HAAB         8.2890     4.0640    -6.4130 hc         1 CDZ       0.055367
     65 H36          4.0740    -0.7600    -3.6520 ho         1 CDZ       0.436000
@<TRIPOS>BOND
     1     1     2 1
     2     1    30 1
     3     1    31 1
     4     1    32 1
     5     2     3 1
     6     2     4 2
     7     3    33 1
     8     3    34 1
     9     3    35 1
    10     4     5 1
    11     4    36 1
    12     5     6 1
    13     5    37 1
    14     5    38 1
    15     6     7 1
    16     6    12 1
    17     6    14 1
    18     7     8 1
    19     7    39 1
    20     7    40 1
    21     8     9 2
    22     8    41 1
    23     9    10 1
    24     9    11 1
    25    10    42 1
    26    10    43 1
    27    10    44 1
    28    11    45 1
    29    11    46 1
    30    11    47 1
    31    12    13 1
    32    12    24 2
    33    14    15 2
    34    14    16 1
    35    16    17 1
    36    16    22 2
    37    17    18 2
    38    17    19 1
    39    19    20 1
    40    19    21 1
    41    19    48 1
    42    20    49 1
    43    20    50 1
    44    20    51 1
    45    21    52 1
    46    21    53 1
    47    21    54 1
    48    22    23 1
    49    22    24 1
    50    23    55 1
    51    24    25 1
    52    25    26 1
    53    25    56 1
    54    25    57 1
    55    26    27 2
    56    26    58 1
    57    27    28 1
    58    27    29 1
    59    28    59 1
    60    28    60 1
    61    28    61 1
    62    29    62 1
    63    29    63 1
    64    29    64 1
    65    13    65 1
@<TRIPOS>SUBSTRUCTURE
     1 CDZ         1 TEMP              0 ****  ****    0 ROOT
