@<TRIPOS>MOLECULE
CE0
   59    60     1     0     0
SMALL
bcc


@<TRIPOS>ATOM
      1 N            0.0000     0.0000     0.0000 nz         1 CE0       0.091400
      2 CA           1.4690     0.0000     0.0000 c3         1 CE0      -0.206500
      3 C            1.9720     0.0000     1.4200 c          1 CE0       0.958600
      4 O            3.2250    -0.3980     1.6900 o          1 CE0      -0.821300
      5 CB           1.9790     1.2490    -0.7210 c3         1 CE0       0.228400
      6 OG           1.5960     1.1920    -2.1200 os         1 CE0      -0.413900
      7 OXT          1.2460     0.3580     2.3180 o          1 CE0      -0.821300
      8 S1           4.0270     1.0100    -4.8190 ss         1 CE0      -0.565200
      9 C2           4.4820    -0.5740    -5.5880 c3         1 CE0       0.219900
     10 C3           3.5360    -1.6430    -5.1260 c2         1 CE0      -0.259400
     11 C3'          4.0050    -3.0720    -5.2350 c3         1 CE0       0.066100
     12 C4           2.3340    -1.4440    -4.6350 ce         1 CE0      -0.054200
     13 C4'          1.5700    -2.6480    -4.2630 c          1 CE0       0.977800
     14 O4A          0.3790    -2.5250    -3.6430 o          1 CE0      -0.871300
     15 O4B          2.0140    -3.7510    -4.5120 o          1 CE0      -0.871300
     16 N5           1.7050    -0.2240    -4.4270 nu         1 CE0      -0.391000
     17 C6           2.2190     1.0080    -5.0460 c3         1 CE0       0.257600
     18 C7           1.6060     2.2310    -4.3600 c3         1 CE0      -0.021300
     19 C8           1.9690     2.2210    -2.8970 c          1 CE0       0.722100
     20 O9           2.5960     3.1390    -2.4240 o          1 CE0      -0.599000
     21 N10          2.1240     3.4510    -4.9830 ns         1 CE0      -0.153900
     22 C11          1.5390     3.9410    -6.0940 c          1 CE0       0.529100
     23 O12          0.5830     3.3720    -6.5780 o          1 CE0      -0.599100
     24 C13          2.0720     5.1960    -6.7360 c3         1 CE0       0.068500
     25 N16          1.0350     5.7850    -7.5940 n7         1 CE0      -0.374700
     26 O17          0.6360     4.8530    -8.6490 os         1 CE0      -0.266100
     27 C18         -0.3720     5.3630    -9.5230 c3         1 CE0       0.258700
     28 C14          3.3000     4.8550    -7.5810 c3         1 CE0       0.104500
     29 C15          3.8380     6.1390    -8.2310 c3         1 CE0       0.101700
     30 S16          5.5390     6.2530    -7.5890 ss         1 CE0      -0.269300
     31 C17          5.4580     4.7790    -6.6160 c2         1 CE0       0.142100
     32 N18          6.4840     4.2850    -5.8440 nz         1 CE0       0.246400
     33 N19          4.2990     4.2380    -6.7370 n2         1 CE0      -0.339900
     34 HN          -0.3340    -0.1930    -0.9240 hn         1 CE0       0.215800
     35 HNA         -0.3340     0.8960     0.2950 hn         1 CE0       0.215800
     36 HA           1.8300    -0.8840    -0.5110 hx         1 CE0       0.123700
     37 HB           1.5470     2.1310    -0.2640 h1         1 CE0       0.044200
     38 HBA          3.0590     1.2950    -0.6440 h1         1 CE0       0.044200
     39 H2           5.4920    -0.8370    -5.2980 h1         1 CE0       0.036700
     40 H2A          4.4220    -0.4810    -6.6660 h1         1 CE0       0.036700
     41 H3'          4.0240    -3.5220    -4.2500 hc         1 CE0       0.019033
     42 H3'A         5.0010    -3.0930    -5.6610 hc         1 CE0       0.019033
     43 H3'B         3.3270    -3.6270    -5.8730 hc         1 CE0       0.019033
     44 HN5          0.8890    -0.1820    -3.8490 hn         1 CE0       0.323800
     45 H6           1.9810     1.0140    -6.1030 h2         1 CE0       0.064700
     46 H7           0.5280     2.2020    -4.4650 h1         1 CE0       0.083700
     47 HN10         2.8840     3.9450    -4.5590 hn         1 CE0       0.188500
     48 H13          2.3490     5.9060    -5.9650 h1         1 CE0       0.050700
     49 HN16         0.2370     6.0230    -7.0390 hn         1 CE0       0.275800
     50 H18         -1.3100     5.4410    -8.9870 h1         1 CE0      -0.000967
     51 H18A        -0.0780     6.3430    -9.8810 h1         1 CE0      -0.000967
     52 H18B        -0.4930     4.6920   -10.3650 h1         1 CE0      -0.000967
     53 H14          3.0180     4.1570    -8.3600 h1         1 CE0       0.114700
     54 H15          3.8440     6.0450    -9.3100 h1         1 CE0       0.087700
     55 H15A         3.2550     6.9970    -7.9180 h1         1 CE0       0.087700
     56 HN18         7.2530     4.9250    -5.8630 hn         1 CE0       0.221133
     57 HN1A         6.1670     4.1720    -4.9020 hn         1 CE0       0.221133
     58 HN3         -0.3340    -0.7100     0.6210 hn         1 CE0       0.215800
     59 H183         6.7790     3.4010    -6.2080 hn         1 CE0       0.221133
@<TRIPOS>BOND
     1     1     2 1   
     2     1    34 1   
     3     1    35 1   
     4     1    58 1   
     5     2     3 1   
     6     2     5 1   
     7     2    36 1   
     8     3     4 1   
     9     3     7 1   
    10     5     6 1   
    11     5    37 1   
    12     5    38 1   
    13     6    19 1   
    14     8     9 1   
    15     8    17 1   
    16     9    10 1   
    17     9    39 1   
    18     9    40 1   
    19    10    11 1   
    20    10    12 2   
    21    11    41 1   
    22    11    42 1   
    23    11    43 1   
    24    12    13 1   
    25    12    16 1   
    26    13    14 1   
    27    13    15 1   
    28    16    17 1   
    29    16    44 1   
    30    17    18 1   
    31    17    45 1   
    32    18    19 1   
    33    18    21 1   
    34    18    46 1   
    35    19    20 2   
    36    21    22 1   
    37    21    47 1   
    38    22    23 2   
    39    22    24 1   
    40    24    25 1   
    41    24    28 1   
    42    24    48 1   
    43    25    26 1   
    44    25    49 1   
    45    26    27 1   
    46    27    50 1   
    47    27    51 1   
    48    27    52 1   
    49    28    29 1   
    50    28    33 1   
    51    28    53 1   
    52    29    30 1   
    53    29    54 1   
    54    29    55 1   
    55    30    31 1   
    56    31    32 1   
    57    31    33 2   
    58    32    56 1   
    59    32    57 1   
    60    32    59 1   
@<TRIPOS>SUBSTRUCTURE
     1 CE0         1 TEMP              0 ****  ****    0 ROOT
