@<TRIPOS>MOLECULE
molecule
   59    60     1     0     0
SMALL
bcc


@<TRIPOS>ATOM
      1 N            0.0000     0.0000     0.0000 nz         1 CE0      -0.790600
      2 CA           1.4690     0.0000     0.0000 c3         1 CE0      -0.007500
      3 C            1.9720     0.0000     1.4200 c          1 CE0       0.868600
      4 O            3.2250    -0.3980     1.6900 o          1 CE0      -0.775800
      5 CB           1.9790     1.2490    -0.7210 c3         1 CE0       0.137400
      6 OG           1.5960     1.1920    -2.1200 os         1 CE0      -0.426900
      7 OXT          1.2460     0.3580     2.3180 o          1 CE0      -0.775800
      8 S1           4.0270     1.0100    -4.8190 ss         1 CE0      -0.533200
      9 C2           4.4820    -0.5740    -5.5880 c3         1 CE0       0.135900
     10 C3           3.5360    -1.6430    -5.1260 c2         1 CE0      -0.257400
     11 C3'          4.0050    -3.0720    -5.2350 c3         1 CE0      -0.000900
     12 C4           2.3340    -1.4440    -4.6350 ce         1 CE0       0.098800
     13 C4'          1.5700    -2.6480    -4.2630 c          1 CE0       0.883800
     14 O4A          0.3790    -2.5250    -3.6430 o          1 CE0      -0.825800
     15 O4B          2.0140    -3.7510    -4.5120 o          1 CE0      -0.825800
     16 N5           1.7050    -0.2240    -4.4270 nu         1 CE0      -0.796000
     17 C6           2.2190     1.0080    -5.0460 c3         1 CE0       0.371600
     18 C7           1.6060     2.2310    -4.3600 c3         1 CE0       0.073700
     19 C8           1.9690     2.2210    -2.8970 c          1 CE0       0.653100
     20 O9           2.5960     3.1390    -2.4240 o          1 CE0      -0.568000
     21 N10          2.1240     3.4510    -4.9830 ns         1 CE0      -0.554900
     22 C11          1.5390     3.9410    -6.0940 c          1 CE0       0.626100
     23 O12          0.5830     3.3720    -6.5780 o          1 CE0      -0.561100
     24 C13          2.0720     5.1960    -6.7360 c3         1 CE0       0.102500
     25 N16          1.0350     5.7850    -7.5940 n7         1 CE0      -0.571700
     26 O17          0.6360     4.8530    -8.6490 os         1 CE0      -0.235100
     27 C18         -0.3720     5.3630    -9.5230 c3         1 CE0       0.118700
     28 C14          3.3000     4.8550    -7.5810 c3         1 CE0       0.137500
     29 C15          3.8380     6.1390    -8.2310 c3         1 CE0       0.011700
     30 S16          5.5390     6.2530    -7.5890 ss         1 CE0      -0.249300
     31 C17          5.4580     4.7790    -6.6160 c2         1 CE0       0.445100
     32 N18          6.4840     4.2850    -5.8440 nz         1 CE0      -0.708600
     33 N19          4.2990     4.2380    -6.7370 n2         1 CE0      -0.521900
     34 HN          -0.3340    -0.1930    -0.9240 hn         1 CE0       0.446467
     35 HNA         -0.3340     0.8960     0.2950 hn         1 CE0       0.446467
     36 HA           1.8300    -0.8840    -0.5110 hx         1 CE0       0.146700
     37 HB           1.5470     2.1310    -0.2640 h1         1 CE0       0.084700
     38 HBA          3.0590     1.2950    -0.6440 h1         1 CE0       0.084700
     39 H2           5.4920    -0.8370    -5.2980 h1         1 CE0       0.059700
     40 H2A          4.4220    -0.4810    -6.6660 h1         1 CE0       0.059700
     41 H3'          4.0240    -3.5220    -4.2500 hc         1 CE0       0.040367
     42 H3'A         5.0010    -3.0930    -5.6610 hc         1 CE0       0.040367
     43 H3'B         3.3270    -3.6270    -5.8730 hc         1 CE0       0.040367
     44 HN5          0.8890    -0.1820    -3.8490 hn         1 CE0       0.463800
     45 H6           1.9810     1.0140    -6.1030 h2         1 CE0       0.084700
     46 H7           0.5280     2.2020    -4.4650 h1         1 CE0       0.115700
     47 HN10         2.8840     3.9450    -4.5590 hn         1 CE0       0.327500
     48 H13          2.3490     5.9060    -5.9650 h1         1 CE0       0.088700
     49 HN16         0.2370     6.0230    -7.0390 hn         1 CE0       0.376800
     50 H18         -1.3100     5.4410    -8.9870 h1         1 CE0       0.045700
     51 H18A        -0.0780     6.3430    -9.8810 h1         1 CE0       0.045700
     52 H18B        -0.4930     4.6920   -10.3650 h1         1 CE0       0.045700
     53 H14          3.0180     4.1570    -8.3600 h1         1 CE0       0.156700
     54 H15          3.8440     6.0450    -9.3100 h1         1 CE0       0.119200
     55 H15A         3.2550     6.9970    -7.9180 h1         1 CE0       0.119200
     56 HN18         7.2530     4.9250    -5.8630 hn         1 CE0       0.479467
     57 HN1A         6.1670     4.1720    -4.9020 hn         1 CE0       0.479467
     58 HN3         -0.3340    -0.7100     0.6210 hn         1 CE0       0.446467
     59 H183         6.7790     3.4010    -6.2080 hn         1 CE0       0.479467
@<TRIPOS>BOND
     1     1     2 1
     2     1    34 1
     3     1    35 1
     4     3     2 1
     5     2     5 1
     6     2    36 1
     7     4     3 1
     8     3     7 1
     9     5     6 1
    10     5    37 1
    11     5    38 1
    12    19     6 1
    13    17     8 1
    14     8     9 1
    15    10     9 1
    16     9    39 1
    17     9    40 1
    18    12    10 2
    19    10    11 1
    20    11    41 1
    21    11    42 1
    22    11    43 1
    23    16    12 1
    24    13    12 1
    25    14    13 1
    26    15    13 1
    27    16    17 1
    28    16    44 1
    29    18    17 1
    30    17    45 1
    31    19    18 1
    32    21    18 1
    33    18    46 1
    34    20    19 2
    35    21    22 1
    36    21    47 1
    37    24    22 1
    38    22    23 2
    39    25    24 1
    40    24    28 1
    41    24    48 1
    42    26    25 1
    43    25    49 1
    44    27    26 1
    45    27    50 1
    46    27    51 1
    47    27    52 1
    48    33    28 1
    49    28    29 1
    50    28    53 1
    51    29    30 1
    52    29    54 1
    53    29    55 1
    54    31    30 1
    55    33    31 2
    56    32    31 1
    57    32    56 1
    58    32    57 1
    59    58     1 1
    60    59    32 1
@<TRIPOS>SUBSTRUCTURE
     1 CE0         1 TEMP              0 ****  ****    0 ROOT
