@<TRIPOS>MOLECULE
molecule
   95    94     1     0     0
SMALL
bcc


@<TRIPOS>ATOM
      1 C1           0.0000     0.0000     0.0000 c3         1 CE1      -0.092100
      2 C2           1.5290     0.0000     0.0000 c3         1 CE1      -0.084400
      3 C3           2.0410     0.0000     1.4410 c3         1 CE1      -0.081400
      4 C4           3.5700    -0.0010     1.4410 c3         1 CE1      -0.082400
      5 C5           4.0820    -0.0000     2.8820 c3         1 CE1      -0.081400
      6 C6           5.6110    -0.0010     2.8820 c3         1 CE1      -0.082400
      7 C7           6.1230    -0.0010     4.3230 c3         1 CE1      -0.081400
      8 C8           7.6530    -0.0010     4.3220 c3         1 CE1      -0.082400
      9 C9           8.1630    -0.0020     5.7640 c3         1 CE1      -0.080400
     10 C10          9.6930    -0.0020     5.7630 c3         1 CE1      -0.082400
     11 C11         10.2040    -0.0020     7.2050 c3         1 CE1      -0.082400
     12 C12         11.7340    -0.0030     7.2040 c3         1 CE1       0.124400
     13 O13         12.2120    -0.0020     8.5510 os         1 CE1      -0.397600
     14 C14         13.6390    -0.0020     8.4840 c3         1 CE1       0.128400
     15 C15         14.2170    -0.0020     9.9000 c3         1 CE1       0.126400
     16 O16         13.7730    -1.1690    10.5950 os         1 CE1      -0.383600
     17 C17         14.3430    -1.1120    11.9050 c3         1 CE1       0.126400
     18 C18         13.9030    -2.3380    12.7070 c3         1 CE1       0.126400
     19 O19         14.3490    -3.5230    12.0450 os         1 CE1      -0.384600
     20 C20         13.9110    -4.6280    12.8380 c3         1 CE1       0.126400
     21 C21         14.3580    -5.9360    12.1820 c3         1 CE1       0.126400
     22 O22         15.7840    -5.9560    12.0820 os         1 CE1      -0.384600
     23 C23         16.1370    -7.1950    11.4660 c3         1 CE1       0.126400
     24 C24         17.6580    -7.2810    11.3300 c3         1 CE1       0.126400
     25 O25         18.2570    -7.2060    12.6240 os         1 CE1      -0.383600
     26 C26         19.6700    -7.2920    12.4310 c3         1 CE1       0.126400
     27 C27         20.3760    -7.2170    13.7850 c3         1 CE1       0.126400
     28 O28         19.9420    -8.3010    14.6100 os         1 CE1      -0.384600
     29 C29         20.6330    -8.1760    15.8540 c3         1 CE1       0.126400
     30 C30         20.2120    -9.3140    16.7870 c3         1 CE1       0.126400
     31 O31         20.5360   -10.5680    16.1860 os         1 CE1      -0.383600
     32 C32         20.1200   -11.5830    17.1010 c3         1 CE1       0.126400
     33 C33         20.4400   -12.9600    16.5140 c3         1 CE1       0.125400
     34 O34         21.8480   -13.0670    16.2920 os         1 CE1      -0.381600
     35 C35         22.0810   -14.3670    15.7480 c3         1 CE1       0.128400
     36 C36         23.5770   -14.5480    15.4840 c3         1 CE1       0.142400
     37 O37         24.2970   -14.4090    16.7100 oh         1 CE1      -0.598800
     38 H11         -0.3610    -0.8850     0.5100 hc         1 CE1       0.032367
     39 H12         -0.3610     0.0000    -1.0210 hc         1 CE1       0.032367
     40 H13         -0.3610     0.8840     0.5110 hc         1 CE1       0.032367
     41 H21          1.8900     0.8840    -0.5110 hc         1 CE1       0.039700
     42 H22          1.8900    -0.8840    -0.5110 hc         1 CE1       0.039700
     43 H31          1.6810     0.8850     1.9520 hc         1 CE1       0.040700
     44 H32          1.6800    -0.8840     1.9520 hc         1 CE1       0.040700
     45 H41          3.9310     0.8830     0.9290 hc         1 CE1       0.040700
     46 H42          3.9300    -0.8860     0.9300 hc         1 CE1       0.040700
     47 H51          3.7220     0.8850     3.3930 hc         1 CE1       0.040700
     48 H52          3.7210    -0.8840     3.3940 hc         1 CE1       0.040700
     49 H61          5.9710    -0.8860     2.3710 hc         1 CE1       0.040700
     50 H62          5.9720     0.8830     2.3710 hc         1 CE1       0.040700
     51 H71          5.7620    -0.8850     4.8340 hc         1 CE1       0.041700
     52 H72          5.7620     0.8840     4.8340 hc         1 CE1       0.041700
     53 H81          8.0140     0.8840     3.8120 hc         1 CE1       0.040700
     54 H82          8.0140    -0.8850     3.8110 hc         1 CE1       0.040700
     55 H91          7.8030    -0.8870     6.2740 hc         1 CE1       0.043200
     56 H92          7.8030     0.8820     6.2760 hc         1 CE1       0.043200
     57 H101        10.0540    -0.8860     5.2520 hc         1 CE1       0.040700
     58 H102        10.0540     0.8830     5.2520 hc         1 CE1       0.040700
     59 H111         9.8430    -0.8860     7.7160 hc         1 CE1       0.053700
     60 H112         9.8440     0.8830     7.7160 hc         1 CE1       0.053700
     61 H121        12.0950     0.8810     6.6920 h1         1 CE1       0.023700
     62 H122        12.0940    -0.8880     6.6940 h1         1 CE1       0.023700
     63 H141        13.9750    -0.8870     7.9570 h1         1 CE1       0.033200
     64 H142        13.9760     0.8820     7.9560 h1         1 CE1       0.033200
     65 H151        15.2990    -0.0020     9.8490 h1         1 CE1       0.032200
     66 H152        13.8800     0.8820    10.4270 h1         1 CE1       0.032200
     67 H171        15.4230    -1.0980    11.8290 h1         1 CE1       0.032700
     68 H172        14.0050    -0.2130    12.4070 h1         1 CE1       0.032700
     69 H181        12.8230    -2.3520    12.7830 h1         1 CE1       0.033200
     70 H182        14.3350    -2.2950    13.6990 h1         1 CE1       0.033200
     71 H201        12.8300    -4.6130    12.9130 h1         1 CE1       0.033200
     72 H202        14.3430    -4.5550    13.8290 h1         1 CE1       0.033200
     73 H211        13.9260    -6.0090    11.1920 h1         1 CE1       0.033200
     74 H212        14.0270    -6.7730    12.7840 h1         1 CE1       0.033200
     75 H231        15.6820    -7.2530    10.4850 h1         1 CE1       0.032700
     76 H232        15.7820    -8.0160    12.0770 h1         1 CE1       0.032700
     77 H241        17.9260    -8.2210    10.8610 h1         1 CE1       0.032700
     78 H242        18.0130    -6.4590    10.7190 h1         1 CE1       0.032700
     79 H261        19.9120    -8.2320    11.9500 h1         1 CE1       0.033200
     80 H262        20.0000    -6.4710    11.8060 h1         1 CE1       0.033200
     81 H271        20.1340    -6.2770    14.2670 h1         1 CE1       0.033200
     82 H272        21.4480    -7.2810    13.6380 h1         1 CE1       0.033200
     83 H291        20.3870    -7.2250    16.3090 h1         1 CE1       0.033200
     84 H292        21.7010    -8.2280    15.6800 h1         1 CE1       0.033200
     85 H301        19.1440    -9.2620    16.9610 h1         1 CE1       0.032700
     86 H302        20.7360    -9.2190    17.7310 h1         1 CE1       0.032700
     87 H321        19.0530   -11.5020    17.2700 h1         1 CE1       0.033200
     88 H322        20.6450   -11.4600    18.0400 h1         1 CE1       0.033200
     89 H331        20.1250   -13.7300    17.2080 h1         1 CE1       0.032700
     90 H332        19.9150   -13.0840    15.5750 h1         1 CE1       0.032700
     91 H351        21.5350   -14.4730    14.8180 h1         1 CE1       0.031700
     92 H352        21.7450   -15.1190    16.4520 h1         1 CE1       0.031700
     93 H361        23.7540   -15.5340    15.0710 h1         1 CE1       0.027700
     94 H362        23.9130   -13.7960    14.7800 h1         1 CE1       0.027700
     95 H37         25.2070   -14.6100    16.5650 ho         1 CE1       0.398000
@<TRIPOS>BOND
     1     1     2 1
     2     1    38 1
     3     1    39 1
     4     1    40 1
     5     2     3 1
     6     2    41 1
     7     2    42 1
     8     3     4 1
     9     3    43 1
    10     3    44 1
    11     4     5 1
    12     4    45 1
    13     4    46 1
    14     5     6 1
    15     5    47 1
    16     5    48 1
    17     6     7 1
    18     6    49 1
    19     6    50 1
    20     7     8 1
    21     7    51 1
    22     7    52 1
    23     8     9 1
    24     8    53 1
    25     8    54 1
    26     9    10 1
    27     9    55 1
    28     9    56 1
    29    10    11 1
    30    10    57 1
    31    10    58 1
    32    11    12 1
    33    11    59 1
    34    11    60 1
    35    12    13 1
    36    12    61 1
    37    12    62 1
    38    13    14 1
    39    14    15 1
    40    14    63 1
    41    14    64 1
    42    15    16 1
    43    15    65 1
    44    15    66 1
    45    16    17 1
    46    17    18 1
    47    17    67 1
    48    17    68 1
    49    18    19 1
    50    18    69 1
    51    18    70 1
    52    19    20 1
    53    20    21 1
    54    20    71 1
    55    20    72 1
    56    21    22 1
    57    21    73 1
    58    21    74 1
    59    22    23 1
    60    23    24 1
    61    23    75 1
    62    23    76 1
    63    24    25 1
    64    24    77 1
    65    24    78 1
    66    25    26 1
    67    26    27 1
    68    26    79 1
    69    26    80 1
    70    27    28 1
    71    27    81 1
    72    27    82 1
    73    28    29 1
    74    29    30 1
    75    29    83 1
    76    29    84 1
    77    30    31 1
    78    30    85 1
    79    30    86 1
    80    31    32 1
    81    32    33 1
    82    32    87 1
    83    32    88 1
    84    33    34 1
    85    33    89 1
    86    33    90 1
    87    34    35 1
    88    35    36 1
    89    35    91 1
    90    35    92 1
    91    36    37 1
    92    36    93 1
    93    36    94 1
    94    37    95 1
@<TRIPOS>SUBSTRUCTURE
     1 CE1         1 TEMP              0 ****  ****    0 ROOT
