@<TRIPOS>MOLECULE
CE1
   95    94     1     0     0
SMALL
bcc


@<TRIPOS>ATOM
      1 C1         -1.8920    3.7850    1.0890 c3        1 CE1     -0.092100
      2 C2         -0.7390    2.8370    0.8810 c3        1 CE1     -0.080400
      3 C3          0.3220    3.0100    1.9460 c3        1 CE1     -0.079400
      4 C4          1.4780    2.0560    1.7330 c3        1 CE1     -0.079400
      5 C5          2.5380    2.2310    2.7990 c3        1 CE1     -0.079400
      6 C6          3.6930    1.2760    2.5860 c3        1 CE1     -0.079400
      7 C7          4.7530    1.4500    3.6530 c3        1 CE1     -0.079400
      8 C8          5.9090    0.4950    3.4400 c3        1 CE1     -0.079400
      9 C9          6.9670    0.6670    4.5080 c3        1 CE1     -0.078400
     10 C10         8.1230   -0.2870    4.2940 c3        1 CE1     -0.078400
     11 C11         9.1770   -0.1140    5.3650 c3        1 CE1     -0.083400
     12 C12        10.3280   -1.0770    5.1360 c3        1 CE1      0.132400
     13 O13        11.2640   -0.8520    6.1880 os        1 CE1     -0.428600
     14 C14        12.4120   -1.6910    6.0760 c3        1 CE1      0.126400
     15 C15        13.2390   -1.4620    7.3380 c3        1 CE1      0.127400
     16 O16        13.1550   -2.6660    8.0980 os        1 CE1     -0.429600
     17 C17        13.7540   -2.5340    9.3860 c3        1 CE1      0.127400
     18 C18        13.7440   -3.9240   10.0130 c3        1 CE1      0.127400
     19 O19        15.0900   -4.3950    9.9770 os        1 CE1     -0.429600
     20 C20        15.1950   -5.7590   10.3800 c3        1 CE1      0.127400
     21 C21        16.6850   -6.0730   10.4600 c3        1 CE1      0.127400
     22 O22        17.0010   -6.1860   11.8460 os        1 CE1     -0.429600
     23 C23        18.4030   -6.3260   12.0700 c3        1 CE1      0.127400
     24 C24        18.5770   -6.6200   13.5560 c3        1 CE1      0.127400
     25 O25        18.9210   -8.0010   13.6580 os        1 CE1     -0.429600
     26 C26        18.9520   -8.4510   15.0110 c3        1 CE1      0.127400
     27 C27        19.4900   -9.8770   14.9800 c3        1 CE1      0.127400
     28 O28        20.8180   -9.8210   15.4990 os        1 CE1     -0.429600
     29 C29        21.5010  -11.0660   15.3690 c3        1 CE1      0.127400
     30 C30        22.8230  -10.9140   16.1140 c3        1 CE1      0.127400
     31 O31        22.6990  -11.6710   17.3170 os        1 CE1     -0.428600
     32 C32        23.8100  -11.4840   18.1900 c3        1 CE1      0.127400
     33 C33        23.6290  -12.4700   19.3390 c3        1 CE1      0.128400
     34 O34        24.5860  -13.5090   19.1370 os        1 CE1     -0.438600
     35 C35        24.4100  -14.5940   20.0460 c3        1 CE1      0.087400
     36 C36        25.5310  -15.5840   19.7460 c3        1 CE1      0.131400
     37 O37        26.7980  -15.0470   20.0640 oh        1 CE1     -0.600800
     38 H11        -1.5420    4.8450    1.0520 hc        1 CE1      0.032700
     39 H12        -2.6620    3.6410    0.2930 hc        1 CE1      0.032700
     40 H13        -2.3730    3.6100    2.0810 hc        1 CE1      0.032700
     41 H21        -0.2850    3.0110   -0.1310 hc        1 CE1      0.038700
     42 H22        -1.1140    1.7790    0.8960 hc        1 CE1      0.038700
     43 H31         0.6990    4.0670    1.9320 hc        1 CE1      0.039700
     44 H32        -0.1300    2.8350    2.9580 hc        1 CE1      0.039700
     45 H41         1.1010    1.0000    1.7470 hc        1 CE1      0.039700
     46 H42         1.9290    2.2320    0.7220 hc        1 CE1      0.039700
     47 H51         2.0870    2.0540    3.8110 hc        1 CE1      0.039700
     48 H52         2.9150    3.2870    2.7860 hc        1 CE1      0.039700
     49 H61         3.3160    0.2200    2.5990 hc        1 CE1      0.039700
     50 H62         4.1460    1.4530    1.5750 hc        1 CE1      0.039700
     51 H71         4.3010    1.2730    4.6650 hc        1 CE1      0.039700
     52 H72         5.1310    2.5060    3.6400 hc        1 CE1      0.039700
     53 H81         5.5310   -0.5610    3.4510 hc        1 CE1      0.039700
     54 H82         6.3620    0.6730    2.4290 hc        1 CE1      0.039700
     55 H91         6.5150    0.4890    5.5190 hc        1 CE1      0.041700
     56 H92         7.3450    1.7240    4.4970 hc        1 CE1      0.041700
     57 H101        8.5760   -0.1070    3.2840 hc        1 CE1      0.040200
     58 H102        7.7440   -1.3430    4.3040 hc        1 CE1      0.040200
     59 H111        8.7350   -0.2990    6.3780 hc        1 CE1      0.054700
     60 H112        9.5660    0.9370    5.3600 hc        1 CE1      0.054700
     61 H121        9.9740   -2.1430    5.1690 h1        1 CE1      0.025700
     62 H122       10.8210   -0.8880    4.1450 h1        1 CE1      0.025700
     63 H141       12.9970   -1.3960    5.1650 h1        1 CE1      0.041700
     64 H142       12.1020   -2.7660    5.9920 h1        1 CE1      0.041700
     65 H151       14.3120   -1.2670    7.0750 h1        1 CE1      0.043200
     66 H152       12.8320   -0.6000    7.9300 h1        1 CE1      0.043200
     67 H171       13.1470   -1.8210   10.0040 h1        1 CE1      0.043200
     68 H172       14.8040   -2.1490    9.2870 h1        1 CE1      0.043200
     69 H181       13.4020   -3.8690   11.0800 h1        1 CE1      0.043700
     70 H182       13.0750   -4.6160    9.4360 h1        1 CE1      0.043700
     71 H201       14.6980   -6.4090    9.6120 h1        1 CE1      0.043700
     72 H202       14.7020   -5.9090   11.3770 h1        1 CE1      0.043700
     73 H211       16.9080   -7.0480    9.9510 h1        1 CE1      0.043700
     74 H212       17.2910   -5.2550    9.9890 h1        1 CE1      0.043700
     75 H231       18.9160   -5.3660   11.7990 h1        1 CE1      0.043200
     76 H232       18.8150   -7.1630   11.4470 h1        1 CE1      0.043200
     77 H241       19.4100   -6.0010   13.9830 h1        1 CE1      0.043700
     78 H242       17.6270   -6.4140   14.1170 h1        1 CE1      0.043700
     79 H261       17.9110   -8.4340   15.4290 h1        1 CE1      0.043200
     80 H262       19.6160   -7.7870   15.6260 h1        1 CE1      0.043200
     81 H271       18.8680  -10.5450   15.6330 h1        1 CE1      0.043700
     82 H272       19.5000  -10.2770   13.9320 h1        1 CE1      0.043700
     83 H291       20.8870  -11.8950   15.8110 h1        1 CE1      0.043700
     84 H292       21.6870  -11.2720   14.2820 h1        1 CE1      0.043700
     85 H301       23.0250   -9.8360   16.3530 h1        1 CE1      0.044200
     86 H302       23.6670  -11.3310   15.5030 h1        1 CE1      0.044200
     87 H321       23.8030  -10.4300   18.5750 h1        1 CE1      0.043200
     88 H322       24.7710  -11.6790   17.6440 h1        1 CE1      0.043200
     89 H331       23.8340  -11.9700   20.3220 h1        1 CE1      0.045200
     90 H332       22.5900  -12.8950   19.3390 h1        1 CE1      0.045200
     91 H351       23.4080  -15.0690   19.8810 h1        1 CE1      0.039200
     92 H352       24.4810  -14.2180   21.1010 h1        1 CE1      0.039200
     93 H361       25.4230  -16.4890   20.4010 h1        1 CE1      0.053200
     94 H362       25.4980  -15.8840   18.6650 h1        1 CE1      0.053200
     95 H37        26.8900  -14.2280   19.5610 ho        1 CE1      0.412000
@<TRIPOS>BOND
     1    1    2 1   
     2    1   38 1   
     3    1   39 1   
     4    1   40 1   
     5    2    3 1   
     6    2   41 1   
     7    2   42 1   
     8    3    4 1   
     9    3   43 1   
    10    3   44 1   
    11    4    5 1   
    12    4   45 1   
    13    4   46 1   
    14    5    6 1   
    15    5   47 1   
    16    5   48 1   
    17    6    7 1   
    18    6   49 1   
    19    6   50 1   
    20    7    8 1   
    21    7   51 1   
    22    7   52 1   
    23    8    9 1   
    24    8   53 1   
    25    8   54 1   
    26    9   10 1   
    27    9   55 1   
    28    9   56 1   
    29   10   11 1   
    30   10   57 1   
    31   10   58 1   
    32   11   12 1   
    33   11   59 1   
    34   11   60 1   
    35   12   13 1   
    36   12   61 1   
    37   12   62 1   
    38   13   14 1   
    39   14   15 1   
    40   14   63 1   
    41   14   64 1   
    42   15   16 1   
    43   15   65 1   
    44   15   66 1   
    45   16   17 1   
    46   17   18 1   
    47   17   67 1   
    48   17   68 1   
    49   18   19 1   
    50   18   69 1   
    51   18   70 1   
    52   19   20 1   
    53   20   21 1   
    54   20   71 1   
    55   20   72 1   
    56   21   22 1   
    57   21   73 1   
    58   21   74 1   
    59   22   23 1   
    60   23   24 1   
    61   23   75 1   
    62   23   76 1   
    63   24   25 1   
    64   24   77 1   
    65   24   78 1   
    66   25   26 1   
    67   26   27 1   
    68   26   79 1   
    69   26   80 1   
    70   27   28 1   
    71   27   81 1   
    72   27   82 1   
    73   28   29 1   
    74   29   30 1   
    75   29   83 1   
    76   29   84 1   
    77   30   31 1   
    78   30   85 1   
    79   30   86 1   
    80   31   32 1   
    81   32   33 1   
    82   32   87 1   
    83   32   88 1   
    84   33   34 1   
    85   33   89 1   
    86   33   90 1   
    87   34   35 1   
    88   35   36 1   
    89   35   91 1   
    90   35   92 1   
    91   36   37 1   
    92   36   93 1   
    93   36   94 1   
    94   37   95 1   
@<TRIPOS>SUBSTRUCTURE
     1 CE1         1 TEMP              0 ****  ****    0 ROOT
