@<TRIPOS>MOLECULE
CE2
   31    31     1     0     0
SMALL
bcc


@<TRIPOS>ATOM
      1 C12         0.0910    0.2350   -0.3290 c3        1 CE2     -0.084100
      2 C7          1.5950    0.0710   -0.1350 c3        1 CE2     -0.080300
      3 C5          1.9010   -0.0450    1.3170 cc        1 CE2      0.272000
      4 C3          1.4950   -0.8840    2.3290 cd        1 CE2     -0.457900
      5 C2          2.2360   -0.3890    3.5460 cd        1 CE2      0.840300
      6 O4          2.1330   -0.8770    4.7230 o         1 CE2     -0.911000
      7 N1          3.0000    0.6830    3.1510 nc        1 CE2     -0.597300
      8 O8          2.8120    0.8870    1.8450 os        1 CE2     -0.163100
      9 C6          0.5980   -2.0430    2.2870 c3        1 CE2      0.013900
     10 C11        -0.7030   -1.8040    3.0520 c3        1 CE2     -0.025500
     11 C25        -1.7120   -3.0050    2.8740 c         1 CE2      0.918600
     12 O28        -1.9020   -3.4100    1.7070 o         1 CE2     -0.801300
     13 O27        -2.2720   -3.4230    3.9280 o         1 CE2     -0.801300
     14 N24        -0.4410   -1.5590    4.5010 n4        1 CE2     -0.837600
     15 C13         2.0670   -1.1870   -0.8580 c3        1 CE2     -0.084100
     16 C14         2.3040    1.2800   -0.7380 c3        1 CE2     -0.084100
     17 H121       -0.4590   -0.6210    0.1320 hc        1 CE2      0.035589
     18 H122       -0.1490    0.2720   -1.4190 hc        1 CE2      0.035589
     19 H123       -0.2580    1.1820    0.1470 hc        1 CE2      0.035589
     20 H61         1.1250   -2.9410    2.7120 hc        1 CE2      0.067700
     21 H62         0.2980   -2.3010    1.2340 hc        1 CE2      0.067700
     22 H11        -1.2140   -0.8900    2.6370 hx        1 CE2      0.071700
     23 H241       -1.1640   -2.0530    5.0430 hn        1 CE2      0.452467
     24 H242        0.5070   -1.9140    4.7460 hn        1 CE2      0.452467
     25 H243       -0.4390   -0.5640    4.7040 hn        1 CE2      0.452467
     26 H131        1.5460   -2.0870   -0.4550 hc        1 CE2      0.035589
     27 H132        1.8470   -1.1020   -1.9490 hc        1 CE2      0.035589
     28 H133        3.1670   -1.3180   -0.7200 hc        1 CE2      0.035589
     29 H141        1.9830    2.2130   -0.2150 hc        1 CE2      0.035589
     30 H142        3.4090    1.1750   -0.6170 hc        1 CE2      0.035589
     31 H143        2.0590    1.3650   -1.8230 hc        1 CE2      0.035589
@<TRIPOS>BOND
     1    1    2 1   
     2    1   17 1   
     3    1   18 1   
     4    1   19 1   
     5    2    3 1   
     6    2   15 1   
     7    2   16 1   
     8    3    4 2   
     9    3    8 1   
    10    4    5 1   
    11    4    9 1   
    12    5    6 1   
    13    5    7 2   
    14    7    8 1   
    15    9   10 1   
    16    9   20 1   
    17    9   21 1   
    18   10   11 1   
    19   10   14 1   
    20   10   22 1   
    21   11   12 1   
    22   11   13 1   
    23   14   23 1   
    24   14   24 1   
    25   14   25 1   
    26   15   26 1   
    27   15   27 1   
    28   15   28 1   
    29   16   29 1   
    30   16   30 1   
    31   16   31 1   
@<TRIPOS>SUBSTRUCTURE
     1 CE2         1 TEMP              0 ****  ****    0 ROOT
