@<TRIPOS>MOLECULE
CE3
   46    48     1     0     0
SMALL
bcc


@<TRIPOS>ATOM
      1 C            0.0000     0.0000     0.0000 cy         1 CE3       0.095800
      2 C1           1.5250     0.0000     0.0000 cy         1 CE3      -0.077300
      3 S           -0.7810    -1.5060    -0.6700 ss         1 CE3      -0.454200
      4 C2          -2.2530    -1.6230     0.3920 c3         1 CE3       0.188900
      5 C3          -1.9410    -1.3400     1.8250 c2         1 CE3      -0.243400
      6 C4          -0.8980    -0.6980     2.3270 ce         1 CE3      -0.102600
      7 N            0.1160    -0.2290     1.4750 nj         1 CE3      -0.025000
      8 C5           1.4400     0.0000     1.5170 c          1 CE3       0.637500
      9 O            2.2460     0.1480     2.4110 o          1 CE3      -0.556500
     10 N1           2.1130    -1.2220    -0.5550 ns         1 CE3      -0.192900
     11 C6           3.3520    -1.1940    -1.0830 c          1 CE3       0.481800
     12 O2           4.0190    -0.1800    -1.0150 o          1 CE3      -0.645100
     13 C7           3.9030    -2.3980    -1.7480 ce         1 CE3       0.272300
     14 N2           5.0580    -2.3410    -2.3480 n2         1 CE3      -0.365200
     15 O1           5.8360    -1.1600    -2.2750 os         1 CE3      -0.131300
     16 C8           7.0780    -1.2380    -2.9790 c3         1 CE3       0.251700
     17 C14          3.1420    -3.6660    -1.7280 cc         1 CE3       0.343000
     18 N3           1.9130    -3.7540    -1.2190 nc         1 CE3      -0.640000
     19 C15          1.3440    -4.9180    -1.2580 cd         1 CE3       0.594300
     20 N4           0.0760    -5.2040    -0.7800 nv         1 CE3      -0.475500
     21 S1           2.4320    -6.0800    -2.0120 ss         1 CE3      -0.390300
     22 C13          3.6380    -4.8140    -2.2310 cd         1 CE3      -0.119400
     23 C9          -2.9420    -1.8530     2.8280 c3         1 CE3       0.259600
     24 O3          -4.0660    -2.4500     2.1290 os         1 CE3      -0.458900
     25 C10         -5.0990    -2.8650     2.8790 c          1 CE3       0.680100
     26 O4          -5.1060    -2.6520     4.0680 o          1 CE3      -0.568000
     27 C11         -6.2490    -3.5960     2.2370 c3         1 CE3      -0.045100
     28 C12         -0.7990    -0.4740     3.7810 c          1 CE3       0.965800
     29 O5           0.0980     0.2120     4.2320 o          1 CE3      -0.847800
     30 O6          -1.7020    -1.0320     4.6120 o          1 CE3      -0.847800
     31 HC          -0.4640     0.9430    -0.2650 h2         1 CE3       0.071700
     32 H1           1.9440     0.9170    -0.3960 h1         1 CE3       0.076700
     33 H21         -2.6630    -2.6230     0.3140 h1         1 CE3       0.046700
     34 H22         -2.9900    -0.9080     0.0470 h1         1 CE3       0.046700
     35 HN1          1.5970    -2.0800    -0.5350 hn         1 CE3       0.258500
     36 H81          7.6850    -2.0280    -2.5540 h1         1 CE3      -0.008633
     37 H82          6.8880    -1.4510    -4.0240 h1         1 CE3      -0.008633
     38 H83          7.6020    -0.2940    -2.8920 h1         1 CE3      -0.008633
     39 H41         -0.1780    -6.1500    -0.5710 hn         1 CE3       0.282300
     40 H42         -0.5980    -4.4720    -0.6800 hn         1 CE3       0.282300
     41 H13          4.6130    -4.9390    -2.6850 h4         1 CE3       0.171000
     42 H91         -3.2930    -1.0320     3.4410 h1         1 CE3       0.077700
     43 H92         -2.4720    -2.5990     3.4580 h1         1 CE3       0.077700
     44 H111        -6.6350    -3.0100     1.4120 hc         1 CE3       0.016367
     45 H112        -5.9070    -4.5560     1.8680 hc         1 CE3       0.016367
     46 H113        -7.0340    -3.7500     2.9680 hc         1 CE3       0.016367
@<TRIPOS>BOND
     1     1     2 1   
     2     1     3 1   
     3     1     7 1   
     4     1    31 1   
     5     2     8 1   
     6     2    10 1   
     7     2    32 1   
     8     3     4 1   
     9     4     5 1   
    10     4    33 1   
    11     4    34 1   
    12     5     6 2   
    13     5    23 1   
    14     6     7 1   
    15     6    28 1   
    16     7     8 1   
    17     8     9 2   
    18    10    11 1   
    19    10    35 1   
    20    11    12 2   
    21    11    13 1   
    22    13    14 2   
    23    13    17 1   
    24    14    15 1   
    25    15    16 1   
    26    16    36 1   
    27    16    37 1   
    28    16    38 1   
    29    17    18 1   
    30    17    22 2   
    31    18    19 2   
    32    19    20 1   
    33    19    21 1   
    34    20    39 1   
    35    20    40 1   
    36    21    22 1   
    37    22    41 1   
    38    23    24 1   
    39    23    42 1   
    40    23    43 1   
    41    24    25 1   
    42    25    26 2   
    43    25    27 1   
    44    27    44 1   
    45    27    45 1   
    46    27    46 1   
    47    28    29 1   
    48    28    30 1   
@<TRIPOS>SUBSTRUCTURE
     1 CE3         1 TEMP              0 ****  ****    0 ROOT
