@<TRIPOS>MOLECULE
molecule
   40    41     1     0     0
SMALL
bcc


@<TRIPOS>ATOM
      1 C01          0.0000     0.0000     0.0000 c2         1 CE4      -0.215000
      2 C02          1.3300     0.0000     0.0000 ce         1 CE4      -0.230800
      3 C03          2.0960     0.0000     1.3080 c3         1 CE4       0.008900
      4 C05          4.2980     0.5000    -0.3780 c3         1 CE4       0.241600
      5 C06          5.3070     1.5230    -0.9040 c3         1 CE4       0.035700
      6 C10          6.9440     1.4040    -4.3360 cf         1 CE4       0.339300
      7 C13          8.4310     4.3570    -5.7520 c3         1 CE4       0.136700
      8 C14          6.8130    -0.0250    -4.6920 cd         1 CE4       0.404000
      9 C15          7.2030    -0.5090    -5.8880 cc         1 CE4      -0.165400
     10 C17          6.2440    -2.1520    -4.2750 cc         1 CE4       0.781300
     11 C20          6.3940     1.7290     0.1200 c          1 CE4       0.880600
     12 C24          2.0710    -0.0060    -1.2670 ce         1 CE4       0.431600
     13 C25          1.2910    -0.2980    -2.5000 c          1 CE4       0.808300
     14 N07          5.8980     1.0290    -2.1500 ns         1 CE4      -0.499900
     15 N11          7.5360     2.2280    -5.1530 n2         1 CE4      -0.458200
     16 N18          5.7510    -3.2240    -3.5500 nv         1 CE4      -0.995500
     17 N19          6.3080    -0.9290    -3.8520 nd         1 CE4      -0.691000
     18 N23          3.3180     0.2150    -1.4130 n2         1 CE4      -0.574900
     19 O09          6.4100     3.0890    -2.8030 o          1 CE4      -0.611100
     20 O12          7.7760     3.5670    -4.7590 os         1 CE4      -0.133300
     21 O21          7.5440     1.4880    -0.1630 o          1 CE4      -0.838800
     22 O22          6.0850     2.1800     1.3450 o          1 CE4      -0.838800
     23 O26          0.1280    -0.6320    -2.4180 o          1 CE4      -0.831800
     24 O27          1.8770    -0.1910    -3.7070 o          1 CE4      -0.831800
     25 S04          3.4800     1.1680     1.1030 ss         1 CE4      -0.306200
     26 S16          6.8810    -2.2420    -5.9140 ss         1 CE4      -0.382300
     27 H1          -0.5420    -0.0020    -0.9380 ha         1 CE4       0.126000
     28 H2          -0.5420     0.0000     0.9380 ha         1 CE4       0.126000
     29 H5           2.4780    -0.9930     1.5120 h1         1 CE4       0.046200
     30 H6           1.4510     0.3290     2.1140 h1         1 CE4       0.046200
     31 H7           4.8150    -0.4150    -0.1150 h2         1 CE4       0.064700
     32 H8           4.8040     2.4640    -1.0910 h1         1 CE4       0.089700
     33 H9           9.3980     3.9240    -5.9790 h1         1 CE4       0.022033
     34 H10          7.8260     4.3810    -6.6510 h1         1 CE4       0.022033
     35 H11          8.5650     5.3660    -5.3800 h1         1 CE4       0.022033
     36 H12          7.6370     0.0680    -6.6950 h4         1 CE4       0.182000
     37 H14          5.9780     0.0440    -2.3090 hn         1 CE4       0.342500
     38 H15          5.9580    -3.3050    -2.5740 hn         1 CE4       0.446300
     39 H16          5.2160    -3.9350    -4.0080 hn         1 CE4       0.446300
     40 C08          6.4010     1.8990    -3.0490 c          1 CE4       0.555800
@<TRIPOS>BOND
     1    16    10 1
     2    10    17 2
     3    10    26 1
     4    17     8 1
     5     7    20 1
     6    15    20 1
     7    15     6 2
     8     8     6 1
     9     8     9 2
    10    26     9 1
    11     6    40 1
    12    19    40 2
    13    40    14 1
    14    14     5 1
    15    25     3 1
    16    25     4 1
    17     3     2 1
    18     5     4 1
    19     5    11 1
    20     2     1 2
    21     2    12 1
    22     4    18 1
    23    21    11 1
    24    11    22 1
    25    18    12 2
    26    12    13 1
    27    23    13 1
    28    13    24 1
    29     1    27 1
    30     1    28 1
    31     3    29 1
    32     3    30 1
    33     4    31 1
    34     5    32 1
    35     7    33 1
    36     7    34 1
    37     7    35 1
    38     9    36 1
    39    14    37 1
    40    16    38 1
    41    16    39 1
@<TRIPOS>SUBSTRUCTURE
     1 CE4         1 TEMP              0 ****  ****    0 ROOT
