@<TRIPOS>MOLECULE
CE4
   40    41     1     0     0
SMALL
bcc


@<TRIPOS>ATOM
      1 C01          0.0000     0.0000     0.0000 c2         1 CE4      -0.198000
      2 C02          1.3300     0.0000     0.0000 ce         1 CE4      -0.217800
      3 C03          2.0960     0.0000     1.3080 c3         1 CE4       0.082900
      4 C05          4.2980     0.5000    -0.3780 c3         1 CE4       0.272600
      5 C06          5.3070     1.5230    -0.9040 c3         1 CE4      -0.080300
      6 C10          6.9440     1.4040    -4.3360 ce         1 CE4       0.304300
      7 C13          8.4310     4.3570    -5.7520 c3         1 CE4       0.250700
      8 C14          6.8130    -0.0250    -4.6920 cc         1 CE4       0.359000
      9 C15          7.2030    -0.5090    -5.8880 cd         1 CE4      -0.122400
     10 C17          6.2440    -2.1520    -4.2750 cd         1 CE4       0.587300
     11 C20          6.3940     1.7290     0.1200 c          1 CE4       0.970600
     12 C24          2.0710    -0.0060    -1.2670 ce         1 CE4       0.385600
     13 C25          1.2910    -0.2980    -2.5000 c          1 CE4       0.895300
     14 N07          5.8980     1.0290    -2.1500 ns         1 CE4      -0.097900
     15 N11          7.5360     2.2280    -5.1530 n2         1 CE4      -0.415200
     16 N18          5.7510    -3.2240    -3.5500 nv         1 CE4      -0.494500
     17 N19          6.3080    -0.9290    -3.8520 nc         1 CE4      -0.563000
     18 N23          3.3180     0.2150    -1.4130 n2         1 CE4      -0.485900
     19 O09          6.4100     3.0890    -2.8030 o          1 CE4      -0.670100
     20 O12          7.7760     3.5670    -4.7590 os         1 CE4      -0.118300
     21 O21          7.5440     1.4880    -0.1630 o          1 CE4      -0.885300
     22 O22          6.0850     2.1800     1.3450 o          1 CE4      -0.885300
     23 O26          0.1280    -0.6320    -2.4180 o          1 CE4      -0.881800
     24 O27          1.8770    -0.1910    -3.7070 o          1 CE4      -0.881800
     25 S04          3.4800     1.1680     1.1030 ss         1 CE4      -0.375200
     26 S16          6.8810    -2.2420    -5.9140 ss         1 CE4      -0.448300
     27 H1          -0.5420    -0.0020    -0.9380 ha         1 CE4       0.113000
     28 H2          -0.5420     0.0000     0.9380 ha         1 CE4       0.113000
     29 H5           2.4780    -0.9930     1.5120 h1         1 CE4       0.027200
     30 H6           1.4510     0.3290     2.1140 h1         1 CE4       0.027200
     31 H7           4.8150    -0.4150    -0.1150 h2         1 CE4       0.040700
     32 H8           4.8040     2.4640    -1.0910 h1         1 CE4       0.072700
     33 H9           7.8260     4.3820    -6.6500 h1         1 CE4      -0.019633
     34 H10          9.3970     3.9230    -5.9800 h1         1 CE4      -0.019633
     35 H11          8.5670     5.3650    -5.3800 h1         1 CE4      -0.019633
     36 H12          7.6410     0.0670    -6.6940 h4         1 CE4       0.163000
     37 H14          5.9860     0.0440    -2.3050 hn         1 CE4       0.204500
     38 H15          5.2160    -3.9350    -4.0080 hn         1 CE4       0.270800
     39 H16          5.9480    -3.2990    -2.5710 hn         1 CE4       0.270800
     40 C08          6.4010     1.8990    -3.0490 c          1 CE4       0.466800
@<TRIPOS>BOND
     1     1     2 2   
     2     1    27 1   
     3     1    28 1   
     4     2     3 1   
     5     2    12 1   
     6     3    25 1   
     7     3    29 1   
     8     3    30 1   
     9     4     5 1   
    10     4    18 1   
    11     4    25 1   
    12     4    31 1   
    13     5    11 1   
    14     5    14 1   
    15     5    32 1   
    16     6     8 1   
    17     6    15 2   
    18     6    40 1   
    19     7    20 1   
    20     7    33 1   
    21     7    34 1   
    22     7    35 1   
    23     8     9 2   
    24     8    17 1   
    25     9    26 1   
    26     9    36 1   
    27    10    16 1   
    28    10    17 2   
    29    10    26 1   
    30    11    21 1   
    31    11    22 1   
    32    12    13 1   
    33    12    18 2   
    34    13    23 1   
    35    13    24 1   
    36    14    37 1   
    37    14    40 1   
    38    15    20 1   
    39    16    38 1   
    40    16    39 1   
    41    19    40 2   
@<TRIPOS>SUBSTRUCTURE
     1 CE4         1 TEMP              0 ****  ****    0 ROOT
