@<TRIPOS>MOLECULE
CE9
  102   101     1     0     0
SMALL
bcc


@<TRIPOS>ATOM
      1 C1          0.5370   -0.7070   -0.0880 c3        1 CE9     -0.089100
      2 C2          2.0420   -0.7500   -0.0370 c3        1 CE9     -0.088400
      3 C3          2.5680   -0.2660    1.2970 c3        1 CE9     -0.074400
      4 C4          4.0780   -0.3570    1.3550 c3        1 CE9     -0.082400
      5 C5          4.6040    0.0940    2.7000 c3        1 CE9     -0.078400
      6 C6          6.1170    0.0560    2.7440 c3        1 CE9     -0.078400
      7 C7          6.6380    0.5300    4.0840 c3        1 CE9     -0.079400
      8 C8          8.1510    0.5400    4.1160 c3        1 CE9     -0.079400
      9 C9          8.6680    1.0440    5.4470 c3        1 CE9     -0.077400
     10 C10        10.1800    1.0840    5.4700 c3        1 CE9     -0.080400
     11 C11        10.6940    1.6220    6.7880 c3        1 CE9     -0.080400
     12 C12        12.2110    1.6290    6.8380 c3        1 CE9      0.130400
     13 O13        12.6330    0.2780    7.0220 os        1 CE9     -0.430600
     14 C14        14.0510    0.1410    6.9860 c3        1 CE9      0.093400
     15 C15        14.3620   -1.3390    7.1820 c3        1 CE9      0.131400
     16 O16        14.4170   -2.0350    5.9460 os        1 CE9     -0.427600
     17 C17        13.1260   -2.3290    5.4110 c3        1 CE9      0.121400
     18 C18        13.3730   -2.8880    4.0130 c3        1 CE9      0.128400
     19 O19        12.0910   -2.9650    3.3950 os        1 CE9     -0.428600
     20 C20        12.1640   -3.4920    2.0710 c3        1 CE9      0.128400
     21 C21        10.7250   -3.6450    1.5910 c3        1 CE9      0.127400
     22 O22        10.4370   -5.0420    1.6080 os        1 CE9     -0.427600
     23 C23         9.0470   -5.3090    1.4360 c3        1 CE9      0.120400
     24 C24         8.9070   -6.8220    1.3100 c3        1 CE9      0.126400
     25 O25         8.6980   -7.1010   -0.0740 os        1 CE9     -0.434600
     26 C26         8.6870   -8.5020   -0.3400 c3        1 CE9      0.128400
     27 C27         8.5990   -8.6460   -1.8570 c3        1 CE9      0.117400
     28 O28         8.4080  -10.0420   -2.0930 os        1 CE9     -0.429600
     29 C29         8.2200  -10.3620   -3.4630 c3        1 CE9      0.127400
     30 C30         6.8150   -9.9990   -3.9380 c3        1 CE9      0.095400
     31 O31         6.8970   -8.7020   -4.5220 os        1 CE9     -0.429600
     32 C32         5.6730   -7.9760   -4.4760 c3        1 CE9      0.129400
     33 C33         6.0360   -6.5020   -4.6250 c3        1 CE9      0.124400
     34 O34         6.4820   -6.0670   -3.3440 os        1 CE9     -0.428600
     35 C35         7.0150   -4.7450   -3.3630 c3        1 CE9      0.096400
     36 C36         7.7120   -4.5310   -2.0230 c3        1 CE9      0.119400
     37 O37         6.8230   -4.0130   -1.0440 os        1 CE9     -0.441600
     38 C38         5.9620   -5.0080   -0.4840 c3        1 CE9      0.076400
     39 C39         4.9910   -4.2660    0.4260 c3        1 CE9      0.129400
     40 OXT         4.1260   -3.4220   -0.3070 oh        1 CE9     -0.604800
     41 H11         0.0970   -1.3620    0.7020 hc        1 CE9      0.030033
     42 H12         0.1660    0.3340    0.0740 hc        1 CE9      0.030033
     43 H13         0.1720   -1.0610   -1.0820 hc        1 CE9      0.030033
     44 H21         2.4000   -1.8010   -0.2180 hc        1 CE9      0.047200
     45 H22         2.4650   -0.1120   -0.8580 hc        1 CE9      0.047200
     46 H31         2.1230   -0.8840    2.1210 hc        1 CE9      0.036200
     47 H32         2.2450    0.7940    1.4690 hc        1 CE9      0.036200
     48 H41         4.5230    0.2800    0.5450 hc        1 CE9      0.041700
     49 H42         4.3960   -1.4160    1.1560 hc        1 CE9      0.041700
     50 H51         4.2500    1.1380    2.9110 hc        1 CE9      0.038200
     51 H52         4.1870   -0.5650    3.5070 hc        1 CE9      0.038200
     52 H61         6.4730   -0.9900    2.5490 hc        1 CE9      0.038700
     53 H62         6.5330    0.7030    1.9280 hc        1 CE9      0.038700
     54 H71         6.2510    1.5630    4.2920 hc        1 CE9      0.039200
     55 H72         6.2490   -0.1380    4.8970 hc        1 CE9      0.039200
     56 H81         8.5400    1.1940    3.2900 hc        1 CE9      0.040700
     57 H82         8.5410   -0.4950    3.9290 hc        1 CE9      0.040700
     58 H91         8.2960    0.3790    6.2700 hc        1 CE9      0.038200
     59 H92         8.2610    2.0720    5.6430 hc        1 CE9      0.038200
     60 H101       10.5930    0.0520    5.3090 hc        1 CE9      0.047200
     61 H102       10.5530    1.7260    4.6290 hc        1 CE9      0.047200
     62 H111       10.3330    2.6720    6.9400 hc        1 CE9      0.050700
     63 H112       10.3000    0.9960    7.6300 hc        1 CE9      0.050700
     64 H121       12.6460    2.0360    5.8870 h1        1 CE9      0.026700
     65 H122       12.5770    2.2470    7.7020 h1        1 CE9      0.026700
     66 H141       14.4450    0.5010    5.9990 h1        1 CE9      0.037700
     67 H142       14.5070    0.7460    7.8140 h1        1 CE9      0.037700
     68 H151       13.6130   -1.8090    7.8710 h1        1 CE9      0.060200
     69 H152       15.4000   -1.4520    7.5980 h1        1 CE9      0.060200
     70 H171       12.5000   -1.3980    5.3670 h1        1 CE9      0.051700
     71 H172       12.6170   -3.0880    6.0600 h1        1 CE9      0.051700
     72 H181       14.0430   -2.2070    3.4250 h1        1 CE9      0.038200
     73 H182       13.8380   -3.9070    4.0670 h1        1 CE9      0.038200
     74 H201       12.7210   -2.7710    1.4170 h1        1 CE9      0.043700
     75 H202       12.6920   -4.4830    2.0750 h1        1 CE9      0.043700
     76 H211       10.6190   -3.2640    0.5410 h1        1 CE9      0.044700
     77 H212       10.0200   -3.0910    2.2660 h1        1 CE9      0.044700
     78 H231        8.6600   -4.7920    0.5150 h1        1 CE9      0.047700
     79 H232        8.4870   -4.9420    2.3370 h1        1 CE9      0.047700
     80 H241        8.0190   -7.1810    1.8940 h1        1 CE9      0.044200
     81 H242        9.8340   -7.3390    1.6750 h1        1 CE9      0.044200
     82 H261        7.7980   -8.9730    0.1560 h1        1 CE9      0.038700
     83 H262        9.6230   -8.9790    0.0480 h1        1 CE9      0.038700
     84 H271        7.7390   -8.0560   -2.2760 h1        1 CE9      0.054700
     85 H272        9.5500   -8.3080   -2.3440 h1        1 CE9      0.054700
     86 H291        8.3560  -11.4760   -3.4970 h1        1 CE9      0.060700
     87 H292        8.9910   -9.8550   -4.1000 h1        1 CE9      0.060700
     88 H301        6.0980  -10.0170   -3.0750 h1        1 CE9      0.042700
     89 H302        6.4700  -10.7180   -4.7280 h1        1 CE9      0.042700
     90 H321        5.1370   -8.1470   -3.5060 h1        1 CE9      0.042700
     91 H322        5.0270   -8.3000   -5.3340 h1        1 CE9      0.042700
     92 H331        5.1300   -5.9120   -4.9270 h1        1 CE9      0.041200
     93 H332        6.8490   -6.3690   -5.3860 h1        1 CE9      0.041200
     94 H351        6.1780   -4.0120   -3.5050 h1        1 CE9      0.038700
     95 H352        7.7550   -4.6390   -4.2000 h1        1 CE9      0.038700
     96 H361        8.4910   -3.7290   -2.1290 h1        1 CE9      0.073200
     97 H362        8.1790   -5.4900   -1.6680 h1        1 CE9      0.073200
     98 H381        6.5790   -5.7440    0.0990 h1        1 CE9      0.056200
     99 H382        5.4170   -5.5400   -1.3080 h1        1 CE9      0.056200
    100 H391        5.5560   -3.6620    1.1870 h1        1 CE9      0.049700
    101 H392        4.3160   -4.9990    0.9420 h1        1 CE9      0.049700
    102 HXT         4.6860   -2.8360   -0.8340 ho        1 CE9      0.412000
@<TRIPOS>BOND
     1    1    2 1   
     2    1   41 1   
     3    1   42 1   
     4    1   43 1   
     5    2    3 1   
     6    2   44 1   
     7    2   45 1   
     8    3    4 1   
     9    3   46 1   
    10    3   47 1   
    11    4    5 1   
    12    4   48 1   
    13    4   49 1   
    14    5    6 1   
    15    5   50 1   
    16    5   51 1   
    17    6    7 1   
    18    6   52 1   
    19    6   53 1   
    20    7    8 1   
    21    7   54 1   
    22    7   55 1   
    23    8    9 1   
    24    8   56 1   
    25    8   57 1   
    26    9   10 1   
    27    9   58 1   
    28    9   59 1   
    29   10   11 1   
    30   10   60 1   
    31   10   61 1   
    32   11   12 1   
    33   11   62 1   
    34   11   63 1   
    35   12   13 1   
    36   12   64 1   
    37   12   65 1   
    38   13   14 1   
    39   14   15 1   
    40   14   66 1   
    41   14   67 1   
    42   15   16 1   
    43   15   68 1   
    44   15   69 1   
    45   16   17 1   
    46   17   18 1   
    47   17   70 1   
    48   17   71 1   
    49   18   19 1   
    50   18   72 1   
    51   18   73 1   
    52   19   20 1   
    53   20   21 1   
    54   20   74 1   
    55   20   75 1   
    56   21   22 1   
    57   21   76 1   
    58   21   77 1   
    59   22   23 1   
    60   23   24 1   
    61   23   78 1   
    62   23   79 1   
    63   24   25 1   
    64   24   80 1   
    65   24   81 1   
    66   25   26 1   
    67   26   27 1   
    68   26   82 1   
    69   26   83 1   
    70   27   28 1   
    71   27   84 1   
    72   27   85 1   
    73   28   29 1   
    74   29   30 1   
    75   29   86 1   
    76   29   87 1   
    77   30   31 1   
    78   30   88 1   
    79   30   89 1   
    80   31   32 1   
    81   32   33 1   
    82   32   90 1   
    83   32   91 1   
    84   33   34 1   
    85   33   92 1   
    86   33   93 1   
    87   34   35 1   
    88   35   36 1   
    89   35   94 1   
    90   35   95 1   
    91   36   37 1   
    92   36   96 1   
    93   36   97 1   
    94   37   38 1   
    95   38   39 1   
    96   38   98 1   
    97   38   99 1   
    98   39   40 1   
    99   39  100 1   
   100   39  101 1   
   101   40  102 1   
@<TRIPOS>SUBSTRUCTURE
     1 CE9         1 TEMP              0 ****  ****    0 ROOT
