@<TRIPOS>MOLECULE
molecule
  102   101     1     0     0
SMALL
bcc


@<TRIPOS>ATOM
      1 C1           0.0000     0.0000     0.0000 c3         1 CE9      -0.090100
      2 C2           1.5220     0.0000     0.0000 c3         1 CE9      -0.081400
      3 C3           2.0790     0.0000     1.4240 c3         1 CE9      -0.079400
      4 C4           3.6080     0.0760     1.4820 c3         1 CE9      -0.076400
      5 C5           4.1630     0.0490     2.9090 c3         1 CE9      -0.075400
      6 C6           5.6950     0.0360     2.9670 c3         1 CE9      -0.077400
      7 C7           6.3120    -0.0500     4.3670 c3         1 CE9      -0.075400
      8 C8           7.8400     0.0320     4.3610 c3         1 CE9      -0.075400
      9 C9           8.4570    -0.0660     5.7610 c3         1 CE9      -0.078400
     10 C10          9.9870    -0.0090     5.7540 c3         1 CE9      -0.077400
     11 C11         10.5510    -0.1400     7.1720 c3         1 CE9      -0.074400
     12 C12         12.0730    -0.0590     7.1970 c3         1 CE9       0.134400
     13 O13         12.6260    -1.1160     6.4260 os         1 CE9      -0.401600
     14 C14         14.0470    -1.0740     6.4260 c3         1 CE9       0.138400
     15 C15         14.5770    -2.2370     5.6090 c3         1 CE9       0.135400
     16 O16         14.0720    -2.1420     4.2830 os         1 CE9      -0.394600
     17 C17         14.5380    -3.2100     3.4700 c3         1 CE9       0.135400
     18 C18         13.9490    -3.0660     2.0800 c3         1 CE9       0.136400
     19 O19         12.5300    -3.1290     2.1670 os         1 CE9      -0.390600
     20 C20         11.9240    -2.9990     0.8890 c3         1 CE9       0.135400
     21 C21         10.4190    -3.0980     1.0430 c3         1 CE9       0.137400
     22 O22         10.0900    -4.3700     1.5890 os         1 CE9      -0.393600
     23 C23          8.6880    -4.5180     1.7560 c3         1 CE9       0.136400
     24 C24          8.3990    -5.8960     2.3170 c3         1 CE9       0.136400
     25 O25          8.8670    -6.8780     1.4000 os         1 CE9      -0.388600
     26 C26          8.6220    -8.1950     1.8760 c3         1 CE9       0.137400
     27 C27          9.1180    -9.1930     0.8490 c3         1 CE9       0.135400
     28 O28          8.4090    -8.9980    -0.3700 os         1 CE9      -0.387600
     29 C29          8.8500    -9.8940    -1.3790 c3         1 CE9       0.137400
     30 C30          8.0610    -9.6380    -2.6480 c3         1 CE9       0.136400
     31 O31          8.2610    -8.2900    -3.0550 os         1 CE9      -0.388600
     32 C32          7.5600    -7.9990    -4.2550 c3         1 CE9       0.135400
     33 C33          7.8100    -6.5520    -4.6370 c3         1 CE9       0.136400
     34 O34          7.3280    -5.7080    -3.5980 os         1 CE9      -0.381600
     35 C35          7.5570    -4.3370    -3.8940 c3         1 CE9       0.137400
     36 C36          7.0240    -3.4900    -2.7530 c3         1 CE9       0.135400
     37 O37          5.6250    -3.7140    -2.6250 os         1 CE9      -0.391600
     38 C38          5.0730    -2.9590    -1.5540 c3         1 CE9       0.136400
     39 C39          3.5850    -3.2370    -1.4680 c3         1 CE9       0.142400
     40 OXT          3.3850    -4.6300    -1.2550 oh         1 CE9      -0.587800
     41 H11         -0.3610    -0.0150    -1.0210 hc         1 CE9       0.034033
     42 H12         -0.3610     0.8920     0.4970 hc         1 CE9       0.034033
     43 H13         -0.3610    -0.8770     0.5240 hc         1 CE9       0.034033
     44 H21          1.8760    -0.8820    -0.5190 hc         1 CE9       0.036700
     45 H22          1.8760     0.8820    -0.5190 hc         1 CE9       0.036700
     46 H31          1.6690     0.8500     1.9550 hc         1 CE9       0.039200
     47 H32          1.7580    -0.9080     1.9210 hc         1 CE9       0.039200
     48 H41          4.0190    -0.7630     0.9350 hc         1 CE9       0.036200
     49 H42          3.9280     0.9940     1.0030 hc         1 CE9       0.036200
     50 H51          3.7900    -0.8360     3.4090 hc         1 CE9       0.038700
     51 H52          3.8040     0.9240     3.4370 hc         1 CE9       0.038700
     52 H61          6.0580     0.9410     2.4940 hc         1 CE9       0.034700
     53 H62          6.0460    -0.8120     2.3910 hc         1 CE9       0.034700
     54 H71          5.9230     0.7620     4.9680 hc         1 CE9       0.037200
     55 H72          6.0170    -0.9900     4.8190 hc         1 CE9       0.037200
     56 H81          8.1350     0.9760     3.9180 hc         1 CE9       0.038700
     57 H82          8.2290    -0.7750     3.7530 hc         1 CE9       0.038700
     58 H91          8.0810     0.7520     6.3640 hc         1 CE9       0.035700
     59 H92          8.1470    -1.0010     6.2110 hc         1 CE9       0.035700
     60 H101        10.3690    -0.8180     5.1430 hc         1 CE9       0.052200
     61 H102        10.3040     0.9360     5.3310 hc         1 CE9       0.052200
     62 H111        10.1480     0.6570     7.7860 hc         1 CE9       0.045700
     63 H112        10.2440    -1.0920     7.5860 hc         1 CE9       0.045700
     64 H121        12.3890     0.8910     6.7850 h1         1 CE9       0.019700
     65 H122        12.4200    -0.1400     8.2200 h1         1 CE9       0.019700
     66 H141        14.3820    -0.1420     5.9880 h1         1 CE9       0.029200
     67 H142        14.4120    -1.1490     7.4430 h1         1 CE9       0.029200
     68 H151        14.2520    -3.1700     6.0540 h1         1 CE9       0.030200
     69 H152        15.6590    -2.2030     5.5890 h1         1 CE9       0.030200
     70 H171        14.2280    -4.1540     3.8990 h1         1 CE9       0.030700
     71 H172        15.6190    -3.1750     3.4110 h1         1 CE9       0.030700
     72 H181        14.2440    -2.1130     1.6580 h1         1 CE9       0.029700
     73 H182        14.3090    -3.8690     1.4490 h1         1 CE9       0.029700
     74 H201        12.2750    -3.7910     0.2390 h1         1 CE9       0.029700
     75 H202        12.1820    -2.0380     0.4620 h1         1 CE9       0.029700
     76 H211         9.9480    -2.9860     0.0750 h1         1 CE9       0.029200
     77 H212        10.0710    -2.3170     1.7080 h1         1 CE9       0.029200
     78 H231         8.3220    -3.7630     2.4420 h1         1 CE9       0.031200
     79 H232         8.1950    -4.4060     0.7970 h1         1 CE9       0.031200
     80 H241         7.3310    -6.0130     2.4600 h1         1 CE9       0.030700
     81 H242         8.9060    -6.0150     3.2660 h1         1 CE9       0.030700
     82 H261         9.1470    -8.3450     2.8120 h1         1 CE9       0.028700
     83 H262         7.5580    -8.3320     2.0310 h1         1 CE9       0.028700
     84 H271        10.1780    -9.0430     0.6800 h1         1 CE9       0.029200
     85 H272         8.9480   -10.2000     1.2100 h1         1 CE9       0.029200
     86 H291         9.9050    -9.7360    -1.5690 h1         1 CE9       0.027200
     87 H292         8.6900   -10.9150    -1.0520 h1         1 CE9       0.027200
     88 H301         8.4020   -10.3070    -3.4290 h1         1 CE9       0.028700
     89 H302         7.0070    -9.8080    -2.4610 h1         1 CE9       0.028700
     90 H321         6.4990    -8.1560    -4.1020 h1         1 CE9       0.030200
     91 H322         7.9120    -8.6490    -5.0470 h1         1 CE9       0.030200
     92 H331         8.8730    -6.3910    -4.7710 h1         1 CE9       0.027700
     93 H332         7.2890    -6.3250    -5.5590 h1         1 CE9       0.027700
     94 H351         7.0460    -4.0740    -4.8110 h1         1 CE9       0.027200
     95 H352         8.6200    -4.1640    -4.0080 h1         1 CE9       0.027200
     96 H361         7.5210    -3.7670    -1.8320 h1         1 CE9       0.030700
     97 H362         7.2060    -2.4430    -2.9640 h1         1 CE9       0.030700
     98 H381         5.2350    -1.9030    -1.7340 h1         1 CE9       0.028200
     99 H382         5.5510    -3.2460    -0.6250 h1         1 CE9       0.028200
    100 H391         3.1590    -2.6800    -0.6420 h1         1 CE9       0.024700
    101 H392         3.1060    -2.9390    -2.3920 h1         1 CE9       0.024700
    102 HXT          2.4720    -4.7940    -1.0870 ho         1 CE9       0.395000
@<TRIPOS>BOND
     1     1     2 1
     2     1    41 1
     3     1    42 1
     4     1    43 1
     5     2     3 1
     6     2    44 1
     7     2    45 1
     8     3     4 1
     9     3    46 1
    10     3    47 1
    11     4     5 1
    12     4    48 1
    13     4    49 1
    14     5     6 1
    15     5    50 1
    16     5    51 1
    17     6     7 1
    18     6    52 1
    19     6    53 1
    20     7     8 1
    21     7    54 1
    22     7    55 1
    23     8     9 1
    24     8    56 1
    25     8    57 1
    26     9    10 1
    27     9    58 1
    28     9    59 1
    29    10    11 1
    30    10    60 1
    31    10    61 1
    32    11    12 1
    33    11    62 1
    34    11    63 1
    35    12    13 1
    36    12    64 1
    37    12    65 1
    38    13    14 1
    39    14    15 1
    40    14    66 1
    41    14    67 1
    42    15    16 1
    43    15    68 1
    44    15    69 1
    45    16    17 1
    46    17    18 1
    47    17    70 1
    48    17    71 1
    49    18    19 1
    50    18    72 1
    51    18    73 1
    52    19    20 1
    53    20    21 1
    54    20    74 1
    55    20    75 1
    56    21    22 1
    57    21    76 1
    58    21    77 1
    59    22    23 1
    60    23    24 1
    61    23    78 1
    62    23    79 1
    63    24    25 1
    64    24    80 1
    65    24    81 1
    66    25    26 1
    67    26    27 1
    68    26    82 1
    69    26    83 1
    70    27    28 1
    71    27    84 1
    72    27    85 1
    73    28    29 1
    74    29    30 1
    75    29    86 1
    76    29    87 1
    77    30    31 1
    78    30    88 1
    79    30    89 1
    80    31    32 1
    81    32    33 1
    82    32    90 1
    83    32    91 1
    84    33    34 1
    85    33    92 1
    86    33    93 1
    87    34    35 1
    88    35    36 1
    89    35    94 1
    90    35    95 1
    91    36    37 1
    92    36    96 1
    93    36    97 1
    94    37    38 1
    95    38    39 1
    96    38    98 1
    97    38    99 1
    98    39    40 1
    99    39   100 1
   100    39   101 1
   101    40   102 1
@<TRIPOS>SUBSTRUCTURE
     1 CE9         1 TEMP              0 ****  ****    0 ROOT
