@<TRIPOS>MOLECULE
molecule
   32    32     1     0     0
SMALL
bcc


@<TRIPOS>ATOM
      1 N1           0.0000     0.0000     0.0000 nb         1 CEB      -0.858000
      2 C2           1.3230     0.0000     0.0000 ca         1 CEB       0.864000
      3 Cl2          2.1880     0.0030    -1.5050 cl         1 CEB      -0.099000
      4 N3           1.9870     0.0000     1.1430 nb         1 CEB      -0.870000
      5 C4           1.3260    -0.0030     2.2970 ca         1 CEB       0.963900
      6 N5          -0.0020     0.0030     2.3010 nb         1 CEB      -0.849000
      7 C6          -0.6660    -0.0010     1.1510 ca         1 CEB       0.998900
      8 N7           2.0200    -0.0030     3.4900 nu         1 CEB      -0.758900
      9 C8           3.4840    -0.0020     3.4850 c3         1 CEB       0.235300
     10 C9           3.9740    -1.2020     2.7890 c1         1 CEB       0.233700
     11 N9           4.3450    -2.1390     2.2660 n1         1 CEB      -0.361800
     12 C10          3.9990    -0.0030     4.9270 c3         1 CEB      -0.076400
     13 C11          5.5290    -0.0030     4.9220 c3         1 CEB      -0.094100
     14 C12          3.9910     1.2480     2.7650 c3         1 CEB      -0.134100
     15 N13         -2.0460    -0.0010     1.1500 nu         1 CEB      -0.844900
     16 C14         -2.7780     0.0000    -0.1200 c3         1 CEB       0.001800
     17 C15         -4.2820    -0.0010     0.1600 c3         1 CEB      -0.001100
     18 HN7          2.1170     0.8450     4.0130 hn         1 CEB       0.407800
     19 H101         3.6080    -0.8680     5.4490 hc         1 CEB       0.058700
     20 H102         3.6720     0.9000     5.4280 hc         1 CEB       0.058700
     21 H111         5.8900     1.0090     4.7790 hc         1 CEB       0.043367
     22 H112         5.8880    -0.6310     4.1150 hc         1 CEB       0.043367
     23 H113         5.8940    -0.3850     5.8670 hc         1 CEB       0.043367
     24 H121         5.0610     1.1680     2.6110 hc         1 CEB       0.060367
     25 H122         3.4950     1.3390     1.8060 hc         1 CEB       0.060367
     26 H123         3.7770     2.1240     3.3660 hc         1 CEB       0.060367
     27 HN3         -2.5470    -0.2120     1.9900 hn         1 CEB       0.452800
     28 H141        -2.0860    -0.1690    -0.9360 h1         1 CEB       0.122200
     29 H142        -3.5220    -0.7870    -0.1080 h1         1 CEB       0.122200
     30 H151        -4.5320     0.8380     0.7970 hc         1 CEB       0.038367
     31 H152        -4.8230     0.0820    -0.7750 hc         1 CEB       0.038367
     32 H153        -4.5570    -0.9250     0.6550 hc         1 CEB       0.038367
@<TRIPOS>BOND
     1     1     2 ar
     2     1     7 ar
     3     2     3 1
     4     2     4 ar
     5     4     5 ar
     6     5     6 ar
     7     5     8 1
     8     6     7 ar
     9     7    15 1
    10     8     9 1
    11     8    18 1
    12     9    10 1
    13     9    12 1
    14     9    14 1
    15    10    11 3
    16    12    13 1
    17    12    19 1
    18    12    20 1
    19    13    21 1
    20    13    22 1
    21    13    23 1
    22    14    24 1
    23    14    25 1
    24    14    26 1
    25    15    16 1
    26    15    27 1
    27    16    17 1
    28    16    28 1
    29    16    29 1
    30    17    30 1
    31    17    31 1
    32    17    32 1
@<TRIPOS>SUBSTRUCTURE
     1 CEB         1 TEMP              0 ****  ****    0 ROOT
