@<TRIPOS>MOLECULE
CEC
   12    11     1     0     0
SMALL
bcc


@<TRIPOS>ATOM
      1 C1           0.0000     0.0000     0.0000 c          1 CEC       0.617900
      2 O1           1.2130     0.0000     0.0000 o          1 CEC      -0.643100
      3 N1          -0.6730     0.0000     1.1670 ns         1 CEC      -0.229900
      4 C2           0.0590     0.0000     2.4360 c3         1 CEC       0.033000
      5 C3          -0.9360     0.0000     3.5990 c3         1 CEC       0.058000
      6 Cl1         -0.0330    -0.0000     5.1600 cl         1 CEC      -0.115400
      7 H11         -0.5420     0.0230    -0.9380 h5         1 CEC      -0.017800
      8 HN1         -1.6740     0.0000     1.1670 hn         1 CEC       0.174500
      9 H21          0.6820    -0.8850     2.4930 h1         1 CEC       0.037700
     10 H22          0.6820     0.8850     2.4930 h1         1 CEC       0.037700
     11 H31         -1.5580     0.8850     3.5420 h1         1 CEC       0.023700
     12 H32         -1.5580    -0.8850     3.5420 h1         1 CEC       0.023700
@<TRIPOS>BOND
     1     1     2 2   
     2     1     3 1   
     3     1     7 1   
     4     3     4 1   
     5     3     8 1   
     6     4     5 1   
     7     4     9 1   
     8     4    10 1   
     9     5     6 1   
    10     5    11 1   
    11     5    12 1   
@<TRIPOS>SUBSTRUCTURE
     1 CEC         1 TEMP              0 ****  ****    0 ROOT
