@<TRIPOS>MOLECULE
CED
   38    39     1     0     0
SMALL
bcc


@<TRIPOS>ATOM
      1 S1         -1.1140   -1.2710   -0.1690 ss        1 CED     -0.456200
      2 C2          0.0770    0.0670   -0.3420 c3        1 CED      0.112900
      3 C3          0.7940    0.4020    0.9040 c2        1 CED     -0.171400
      4 C3'         1.1590    1.8310    1.0440 c3        1 CED     -0.051900
      5 C4          1.1130   -0.5370    1.8300 ce        1 CED     -0.027200
      6 C4'         1.8270   -0.2270    3.1730 c         1 CED      0.918800
      7 O4A         1.2660   -0.7570    4.1830 o         1 CED     -0.786300
      8 O4B         2.8570    0.4730    3.1780 o         1 CED     -0.786300
      9 N5          0.7860   -1.9070    1.6570 nh        1 CED     -0.683000
     10 C6         -0.5470   -2.2270    1.2540 c3        1 CED      0.314600
     11 C7         -1.6410   -2.1710    2.3740 c3        1 CED     -0.067500
     12 C8         -1.5830   -0.8970    3.2370 c         1 CED      0.553900
     13 O9         -2.6020   -0.2310    3.4090 o         1 CED     -0.540100
     14 N10        -3.0140   -2.3720    1.7930 n4        1 CED     -0.668800
     15 C11        -3.3290   -3.8070    1.5100 c         1 CED      0.543100
     16 O12        -3.3450   -4.5760    2.4620 o         1 CED     -0.436100
     17 C13        -3.5880   -4.1670    0.0660 c3        1 CED     -0.059100
     18 C14        -4.5630   -3.2770   -0.5740 cc        1 CED     -0.224400
     19 C15        -4.2480   -2.1170   -1.2700 cd        1 CED     -0.134000
     20 C16        -5.4090   -1.5080   -1.8280 cd        1 CED     -0.152000
     21 C17        -6.5470   -2.2370   -1.5430 cc        1 CED     -0.149100
     22 S19        -6.2100   -3.5920   -0.6460 ss        1 CED      0.089200
     23 H21        -0.5120    0.9350   -0.7290 h1        1 CED      0.083200
     24 H22         0.8010   -0.2680   -1.1270 h1        1 CED      0.083200
     25 H3'1        1.8500    1.9890    1.9120 hc        1 CED      0.054700
     26 H3'2        0.2380    2.4490    1.1930 hc        1 CED      0.054700
     27 H3'3        1.6740    2.1850    0.1160 hc        1 CED      0.054700
     28 HN5         1.0740   -2.4420    2.4630 hn        1 CED      0.425800
     29 H6         -0.5320   -3.2980    0.8920 h2        1 CED      0.074700
     30 H7         -1.4450   -3.0320    3.0870 hx        1 CED      0.127700
     31 H8         -0.5780   -0.6930    3.7130 h4        1 CED      0.172200
     32 HN1        -3.6920   -1.9940    2.4730 hn        1 CED      0.477800
     33 H131       -3.9400   -5.2370    0.0510 hc        1 CED      0.116200
     34 H132       -2.5990   -4.1240   -0.4790 hc        1 CED      0.116200
     35 H15        -3.2340   -1.7160   -1.4000 ha        1 CED      0.180000
     36 H16        -5.3800   -0.5830   -2.4090 ha        1 CED      0.173000
     37 H17        -7.5560   -1.9740   -1.8650 h4        1 CED      0.188000
     38 H102       -3.0830   -1.8060    0.9210 hn        1 CED      0.477800
@<TRIPOS>BOND
     1    1    2 1   
     2    1   10 1   
     3    2    3 1   
     4    2   23 1   
     5    2   24 1   
     6    3    4 1   
     7    3    5 2   
     8    4   25 1   
     9    4   26 1   
    10    4   27 1   
    11    5    6 1   
    12    5    9 1   
    13    6    7 1   
    14    6    8 1   
    15    9   10 1   
    16    9   28 1   
    17   10   11 1   
    18   10   29 1   
    19   11   12 1   
    20   11   14 1   
    21   11   30 1   
    22   12   13 2   
    23   12   31 1   
    24   14   15 1   
    25   14   32 1   
    26   14   38 1   
    27   15   16 2   
    28   15   17 1   
    29   17   18 1   
    30   17   33 1   
    31   17   34 1   
    32   18   19 2   
    33   18   22 1   
    34   19   20 1   
    35   19   35 1   
    36   20   21 2   
    37   20   36 1   
    38   21   22 1   
    39   21   37 1   
@<TRIPOS>SUBSTRUCTURE
     1 CED         1 TEMP              0 ****  ****    0 ROOT
