@<TRIPOS>MOLECULE
CEE
   18    18     1     0     0
SMALL
bcc


@<TRIPOS>ATOM
      1 C1         -0.0070    0.0100   -0.0110 ca        1 CEE     -0.088300
      2 C2          1.3930    0.0040   -0.0040 ca        1 CEE     -0.124000
      3 C3          2.0900   -0.0040    1.2030 ca        1 CEE     -0.128000
      4 C4          1.3940   -0.0070    2.4130 ca        1 CEE     -0.128000
      5 C5         -0.0010   -0.0020    2.4120 ca        1 CEE     -0.128000
      6 C6         -0.6990    0.0070    1.2050 ca        1 CEE     -0.124000
      7 C1'        -0.7520    0.0120   -1.3000 c3        1 CEE     -0.047100
      8 C2'        -1.0130    1.4300   -1.7620 c3        1 CEE      0.041000
      9 CL1        -1.8920    1.4560   -3.2830 cl        1 CEE     -0.199400
     10 H2          1.9440    0.0030   -0.9570 ha        1 CEE      0.133000
     11 H3          3.1890   -0.0100    1.2010 ha        1 CEE      0.133000
     12 H4          1.9450   -0.0140    3.3650 ha        1 CEE      0.133000
     13 H5         -0.5510   -0.0060    3.3640 ha        1 CEE      0.133000
     14 H6         -1.8000    0.0080    1.2080 ha        1 CEE      0.133000
     15 H1'        -1.7280   -0.5310   -1.1770 hc        1 CEE      0.063200
     16 H1'A       -0.1620   -0.5380   -2.0820 hc        1 CEE      0.063200
     17 H2'        -0.0560    1.9780   -1.9360 h1        1 CEE      0.067700
     18 H2'A       -1.6370    1.9850   -1.0220 h1        1 CEE      0.067700
@<TRIPOS>BOND
     1    1    2 ar  
     2    1    6 ar  
     3    1    7 1   
     4    2    3 ar  
     5    2   10 1   
     6    3    4 ar  
     7    3   11 1   
     8    4    5 ar  
     9    4   12 1   
    10    5    6 ar  
    11    5   13 1   
    12    6   14 1   
    13    7    8 1   
    14    7   15 1   
    15    7   16 1   
    16    8    9 1   
    17    8   17 1   
    18    8   18 1   
@<TRIPOS>SUBSTRUCTURE
     1 CEE         1 TEMP              0 ****  ****    0 ROOT
