@<TRIPOS>MOLECULE
molecule
   18    18     1     0     0
SMALL
bcc


@<TRIPOS>ATOM
      1 C1           0.0000     0.0000     0.0000 ca         1 CEE      -0.093300
      2 C2           1.3820     0.0000     0.0000 ca         1 CEE      -0.122000
      3 C3           2.0740     0.0000     1.1960 ca         1 CEE      -0.125500
      4 C4           1.3830    -0.0010     2.3940 ca         1 CEE      -0.126000
      5 C5           0.0010    -0.0000     2.3940 ca         1 CEE      -0.125500
      6 C6          -0.6910     0.0050     1.1980 ca         1 CEE      -0.122000
      7 C1'         -0.7540     0.0010    -1.3040 c3         1 CEE      -0.046100
      8 C2'         -1.0040     1.4430    -1.7490 c3         1 CEE       0.056000
      9 Cl1         -1.9070     1.4430    -3.3100 cl         1 CEE      -0.211400
     10 H2           1.9230    -0.0020    -0.9380 ha         1 CEE       0.131500
     11 H3           3.1570    -0.0000     1.1960 ha         1 CEE       0.131000
     12 H4           1.9260    -0.0030     3.3320 ha         1 CEE       0.131000
     13 H5          -0.5400     0.0010     3.3330 ha         1 CEE       0.131000
     14 H6          -1.7750     0.0050     1.1980 ha         1 CEE       0.131500
     15 H1'         -1.7030    -0.5060    -1.1730 hc         1 CEE       0.062700
     16 H1'A        -0.1710    -0.5140    -2.0590 hc         1 CEE       0.062700
     17 H2'         -0.0560     1.9500    -1.8790 h1         1 CEE       0.066700
     18 H2'A        -1.5870     1.9570    -0.9940 h1         1 CEE       0.066700
@<TRIPOS>BOND
     1     2     1 ar
     2     1     7 1
     3     1     6 ar
     4     3     2 ar
     5     2    10 1
     6     3     4 ar
     7     3    11 1
     8     4     5 ar
     9     4    12 1
    10     5     6 ar
    11     5    13 1
    12     6    14 1
    13     7     8 1
    14     7    15 1
    15     7    16 1
    16     8     9 1
    17     8    17 1
    18     8    18 1
@<TRIPOS>SUBSTRUCTURE
     1 CEE         1 TEMP              0 ****  ****    0 ROOT
