@<TRIPOS>MOLECULE
CEF
   40    41     1     0     0
SMALL
bcc


@<TRIPOS>ATOM
      1 S1           0.0000     0.0000     0.0000 ss         1 CEF      -0.487200
      2 C1           1.8230     0.0000     0.0000 c3         1 CEF       0.161900
      3 C2           2.2590     0.0000     1.4520 ce         1 CEF      -0.272800
      4 C3           3.2680     0.7680     1.8510 c2         1 CEF      -0.124000
      5 C4           1.5530    -0.8570     2.4140 ce         1 CEF       0.434600
      6 C5           2.1910    -1.0370     3.7460 c          1 CEF       0.885300
      7 O1           3.3010    -0.5940     3.9520 o          1 CEF      -0.857800
      8 O2           1.5340    -1.6910     4.7220 o          1 CEF      -0.857800
      9 N1           0.4480    -1.4610     2.2180 n2         1 CEF      -0.504900
     10 C6          -0.3600    -1.4680     1.0090 c3         1 CEF       0.255600
     11 C7          -1.8410    -1.4690     1.3900 c3         1 CEF      -0.081300
     12 C8          -2.6800    -1.6210     0.1460 c          1 CEF       0.644900
     13 O3          -3.4250    -2.5650     0.0330 o          1 CEF      -0.566100
     14 N2          -2.1100    -2.5840     2.3000 ns         1 CEF      -0.157900
     15 C9          -3.1540    -2.5220     3.1520 c          1 CEF       0.492800
     16 O4          -3.9210    -1.5810     3.1060 o          1 CEF      -0.667100
     17 C10         -3.3640    -3.6030     4.1450 ce         1 CEF       0.285300
     18 N3          -4.3040    -3.4900     5.0400 n2         1 CEF      -0.371200
     19 O5          -5.1980    -2.3930     4.9930 os         1 CEF      -0.131300
     20 C11         -6.1770    -2.3970     6.0350 c3         1 CEF       0.251700
     21 C12         -2.5070    -4.8070     4.1200 cc         1 CEF       0.318000
     22 C13         -2.7350    -5.8720     4.9140 cd         1 CEF      -0.076400
     23 S2          -1.5000    -7.0840     4.5790 ss         1 CEF      -0.406300
     24 C14         -0.7780    -6.0230     3.3760 cd         1 CEF       0.579300
     25 N4           0.3410    -6.3210     2.6160 nv         1 CEF      -0.530500
     26 N5          -1.4580    -4.9210     3.3050 nc         1 CEF      -0.553000
     27 H1           2.1930     0.8890    -0.4960 h1         1 CEF       0.037200
     28 H2           2.1930    -0.8890    -0.4970 h1         1 CEF       0.037200
     29 H3           3.7840     1.3980     1.1360 ha         1 CEF       0.120000
     30 H4           3.5750     0.7640     2.8900 ha         1 CEF       0.120000
     31 H6          -0.1330    -2.3580     0.4340 h2         1 CEF       0.042700
     32 H7          -2.0890    -0.5350     1.8800 h1         1 CEF       0.089700
     33 H8          -2.6350    -0.8690    -0.6320 h4         1 CEF      -0.029800
     34 H9          -1.5100    -3.3850     2.3010 hn         1 CEF       0.234500
     35 H10         -5.6790    -2.3930     6.9970 h1         1 CEF      -0.010300
     36 H11         -6.8010    -1.5160     5.9470 h1         1 CEF      -0.010300
     37 H12         -6.7920    -3.2850     5.9500 h1         1 CEF      -0.010300
     38 H13         -3.5380    -5.9660     5.6350 h4         1 CEF       0.167000
     39 H14          0.2670    -6.3830     1.6200 hn         1 CEF       0.275300
     40 H15          1.2190    -6.4900     3.0640 hn         1 CEF       0.275300
@<TRIPOS>BOND
     1     1     2 1   
     2     1    10 1   
     3     2     3 1   
     4     2    27 1   
     5     2    28 1   
     6     3     4 2   
     7     3     5 1   
     8     4    29 1   
     9     4    30 1   
    10     5     6 1   
    11     5     9 2   
    12     6     7 1   
    13     6     8 1   
    14     9    10 1   
    15    10    11 1   
    16    10    31 1   
    17    11    12 1   
    18    11    14 1   
    19    11    32 1   
    20    12    13 2   
    21    12    33 1   
    22    14    15 1   
    23    14    34 1   
    24    15    16 2   
    25    15    17 1   
    26    17    18 2   
    27    17    21 1   
    28    18    19 1   
    29    19    20 1   
    30    20    35 1   
    31    20    36 1   
    32    20    37 1   
    33    21    22 2   
    34    21    26 1   
    35    22    23 1   
    36    22    38 1   
    37    23    24 1   
    38    24    25 1   
    39    24    26 2   
    40    25    39 1   
    41    25    40 1   
@<TRIPOS>SUBSTRUCTURE
     1 CEF         1 TEMP              0 ****  ****    0 ROOT
