@<TRIPOS>MOLECULE
CEI
   52    55     1     0     0
SMALL
bcc


@<TRIPOS>ATOM
      1 O33          0.0000     0.0000     0.0000 o          1 CEI      -0.552100
      2 C2           1.2120     0.0000     0.0000 c          1 CEI       0.538100
      3 C10          1.9650     0.0000     1.3050 c3         1 CEI      -0.035100
      4 C11          0.9860    -0.0020     2.4510 ca         1 CEI      -0.091300
      5 C12          0.5380     1.1950     2.9760 ca         1 CEI      -0.064000
      6 C13         -0.3640     1.1970     4.0220 ca         1 CEI      -0.134500
      7 C14         -0.8110    -0.0050     4.5530 ca         1 CEI       0.126100
      8 O17         -1.6930    -0.0070     5.5870 oh         1 CEI      -0.500100
      9 C15         -0.3590    -1.2040     4.0250 ca         1 CEI      -0.134500
     10 C16          0.5390    -1.2000     2.9740 ca         1 CEI      -0.064000
     11 N1           1.8860     0.0020    -1.1670 ns         1 CEI      -0.133400
     12 C9           1.1890     0.0020    -2.3730 ca         1 CEI       0.260900
     13 C8           1.8860     0.0090    -3.5780 ca         1 CEI       0.215300
     14 C26          3.3930     0.0100    -3.5760 c3         1 CEI      -0.005400
     15 C27          3.8940     1.4310    -3.5820 ca         1 CEI      -0.095300
     16 C28          4.1310     2.0760    -4.7820 ca         1 CEI      -0.096000
     17 C29          4.5870     3.3810    -4.7870 ca         1 CEI      -0.094500
     18 C30          4.8150     4.0370    -3.5920 ca         1 CEI      -0.099000
     19 C31          4.5830     3.3910    -2.3940 ca         1 CEI      -0.094500
     20 C32          4.1230     2.0870    -2.3890 ca         1 CEI      -0.096000
     21 N7           1.2280     0.0040    -4.7210 nb         1 CEI      -0.505000
     22 C6          -0.1020     0.0030    -4.7230 cp         1 CEI       0.284500
     23 C5          -0.7980     0.0010    -3.5150 ca         1 CEI       0.323900
     24 N4          -0.1370     0.0020    -2.3720 nb         1 CEI      -0.525000
     25 C19         -0.8420     0.0030    -6.0070 cp         1 CEI      -0.159500
     26 C20         -1.9930     0.7770    -6.1500 ca         1 CEI      -0.059500
     27 C21         -2.6790     0.7750    -7.3450 ca         1 CEI      -0.142000
     28 C22         -2.2260     0.0030    -8.4060 ca         1 CEI       0.131100
     29 O25         -2.9050     0.0030    -9.5830 oh         1 CEI      -0.501100
     30 C23         -1.0810    -0.7680    -8.2680 ca         1 CEI      -0.142000
     31 C24         -0.3870    -0.7670    -7.0760 ca         1 CEI      -0.059500
     32 H101         2.5890    -0.8840     1.3620 hc         1 CEI       0.029200
     33 H102         2.5870     0.8850     1.3630 hc         1 CEI       0.029200
     34 H12          0.8870     2.1330     2.5610 ha         1 CEI       0.103000
     35 H13         -0.7160     2.1350     4.4340 ha         1 CEI       0.113000
     36 H17         -1.2220    -0.0050     6.4030 ho         1 CEI       0.400000
     37 H15         -0.7080    -2.1430     4.4360 ha         1 CEI       0.113000
     38 H16          0.8920    -2.1370     2.5610 ha         1 CEI       0.103000
     39 HN1          2.8850    -0.0500    -1.1670 hn         1 CEI       0.185500
     40 H261         3.7550    -0.5040    -4.4580 hc         1 CEI       0.027200
     41 H262         3.7530    -0.4960    -2.6890 hc         1 CEI       0.027200
     42 H28          3.9520     1.5600    -5.7180 ha         1 CEI       0.105000
     43 H29          4.7700     3.8870    -5.7270 ha         1 CEI       0.103500
     44 H30          5.1740     5.0590    -3.5960 ha         1 CEI       0.104000
     45 H31          4.7630     3.9060    -1.4580 ha         1 CEI       0.103500
     46 H32          3.9420     1.5810    -1.4490 ha         1 CEI       0.105000
     47 H5          -1.8810     0.0000    -3.5140 h4         1 CEI      -0.002900
     48 H20         -2.3470     1.3800    -5.3220 ha         1 CEI       0.112000
     49 H21         -3.5730     1.3770    -7.4570 ha         1 CEI       0.115000
     50 H25         -3.5570    -0.6790    -9.5700 ho         1 CEI       0.403000
     51 H23         -0.7290    -1.3680    -9.0980 ha         1 CEI       0.115000
     52 H24          0.5060    -1.3690    -6.9690 ha         1 CEI       0.112000
@<TRIPOS>BOND
     1     1     2 2   
     2     2     3 1   
     3     2    11 1   
     4     3     4 1   
     5     3    32 1   
     6     3    33 1   
     7     4     5 ar  
     8     4    10 ar  
     9     5     6 ar  
    10     5    34 1   
    11     6     7 ar  
    12     6    35 1   
    13     7     8 1   
    14     7     9 ar  
    15     8    36 1   
    16     9    10 ar  
    17     9    37 1   
    18    10    38 1   
    19    11    12 1   
    20    11    39 1   
    21    12    13 ar  
    22    12    24 ar  
    23    13    14 1   
    24    13    21 ar  
    25    14    15 1   
    26    14    40 1   
    27    14    41 1   
    28    15    16 ar  
    29    15    20 ar  
    30    16    17 ar  
    31    16    42 1   
    32    17    18 ar  
    33    17    43 1   
    34    18    19 ar  
    35    18    44 1   
    36    19    20 ar  
    37    19    45 1   
    38    20    46 1   
    39    21    22 ar  
    40    22    23 ar  
    41    22    25 1   
    42    23    24 ar  
    43    23    47 1   
    44    25    26 ar  
    45    25    31 ar  
    46    26    27 ar  
    47    26    48 1   
    48    27    28 ar  
    49    27    49 1   
    50    28    29 1   
    51    28    30 ar  
    52    29    50 1   
    53    30    31 ar  
    54    30    51 1   
    55    31    52 1   
@<TRIPOS>SUBSTRUCTURE
     1 CEI         1 TEMP              0 ****  ****    0 ROOT
