@<TRIPOS>MOLECULE
CEJ
   13    13     1     0     0
SMALL
bcc


@<TRIPOS>ATOM
      1 C1         -0.0100   -0.0700    0.0050 c3        1 CEJ     -0.189400
      2 O3          2.2140   -0.2100   -0.9720 o         1 CEJ     -0.511100
      3 C2          1.5000   -0.0690    0.0180 c         1 CEJ      0.573100
      4 C7          0.7730    0.2530    2.2900 c         1 CEJ      0.573100
      5 C5         -0.4690    0.1330    1.4410 c3        1 CEJ     -0.189400
      6 O8          0.7820    0.4260    3.5070 o         1 CEJ     -0.511100
      7 C10         2.0010    0.1300    1.4250 c3        1 CEJ     -0.302400
      8 H1C1       -0.3810    0.7470   -0.6640 hc        1 CEJ      0.083700
      9 H1C2       -0.3820   -1.0410   -0.4110 hc        1 CEJ      0.083700
     10 H5C1       -1.0880   -0.7280    1.8000 hc        1 CEJ      0.083700
     11 H5C2       -1.0880    1.0600    1.5470 hc        1 CEJ      0.083700
     12 H101        2.6310   -0.7370    1.7500 hc        1 CEJ      0.110700
     13 H102        2.6320    1.0530    1.4960 hc        1 CEJ      0.110700
@<TRIPOS>BOND
     1    1    3 1   
     2    1    5 1   
     3    1    8 1   
     4    1    9 1   
     5    2    3 2   
     6    3    7 1   
     7    4    5 1   
     8    4    6 2   
     9    4    7 1   
    10    5   10 1   
    11    5   11 1   
    12    7   12 1   
    13    7   13 1   
@<TRIPOS>SUBSTRUCTURE
     1 CEJ         1 TEMP              0 ****  ****    0 ROOT
