@<TRIPOS>MOLECULE
molecule
   13    13     1     0     0
SMALL
bcc


@<TRIPOS>ATOM
      1 C1           0.0000     0.0000     0.0000 c3         1 CEJ      -0.192900
      2 O3           2.2290    -0.0040    -0.9710 o          1 CEJ      -0.491100
      3 C2           1.5130     0.0000     0.0000 c          1 CEJ       0.582100
      4 C7           0.7700     0.4690     2.2600 c          1 CEJ       0.582100
      5 C5          -0.4440     0.0120     1.4720 c3         1 CEJ      -0.192900
      6 O8           0.7840     1.0700     3.3070 o          1 CEJ      -0.491100
      7 C10          1.9620     0.0000     1.4450 c3         1 CEJ      -0.311400
      8 H1C1        -0.3690     0.8850    -0.5040 hc         1 CEJ       0.078950
      9 H1C2        -0.3690    -0.8930    -0.4890 hc         1 CEJ       0.078950
     10 H5C1        -1.2620     0.7090     1.6100 hc         1 CEJ       0.078950
     11 H5C2        -0.7370    -0.9840     1.7820 hc         1 CEJ       0.078950
     12 H101         2.2460    -1.0010     1.7450 hc         1 CEJ       0.100200
     13 H102         2.7930     0.6830     1.5750 hc         1 CEJ       0.100200
@<TRIPOS>BOND
     1     1     3 1
     2     1     5 1
     3     1     8 1
     4     1     9 1
     5     2     3 2
     6     3     7 1
     7     4     5 1
     8     4     6 2
     9     4     7 1
    10     5    10 1
    11     5    11 1
    12     7    12 1
    13     7    13 1
@<TRIPOS>SUBSTRUCTURE
     1 CEJ         1 TEMP              0 ****  ****    0 ROOT
