@<TRIPOS>MOLECULE
CEK
   59    63     1     0     0
SMALL
bcc


@<TRIPOS>ATOM
      1 C1           0.0000     0.0000     0.0000 c3         1 CEK      -0.089100
      2 C2           1.5060     0.0000     0.0000 c          1 CEK       0.640300
      3 O3           2.1140     0.0000     1.0520 o          1 CEK      -0.581100
      4 C4           2.2130     0.0000    -1.2230 ce         1 CEK      -0.413400
      5 C5           1.4990     0.0010    -2.4500 c          1 CEK       0.660300
      6 C6           2.3160    -0.0690    -3.7140 c3         1 CEK      -0.101500
      7 C7           3.8010     0.2760    -3.5830 c2         1 CEK       0.179900
      8 C8           4.3770     0.2160    -2.3790 cf         1 CEK      -0.236000
      9 C9           3.6190     0.0060    -1.2170 cf         1 CEK       0.321100
     10 O10          4.1080     0.6800    -4.8310 os         1 CEK      -0.173200
     11 C11          3.0540     1.4110    -5.3060 ca         1 CEK       0.198100
     12 C12          1.8780     1.0110    -4.6740 ca         1 CEK      -0.247300
     13 C13          2.9940     2.4310    -6.2690 ca         1 CEK      -0.217600
     14 C14          1.7610     3.0200    -6.5860 ca         1 CEK       0.248100
     15 C15          0.6070     2.6020    -5.9490 ca         1 CEK      -0.326000
     16 C16          0.6680     1.5940    -4.9910 ca         1 CEK       0.270100
     17 C17          2.1550    -1.4480    -4.3560 c3         1 CEK       0.033900
     18 O18          0.2860     0.0530    -2.4790 o          1 CEK      -0.539100
     19 O19          4.2650    -0.2040    -0.0520 oh         1 CEK      -0.421100
     20 O20         -0.4650     1.1850    -4.3670 oh         1 CEK      -0.446100
     21 O21          1.7000     4.0040    -7.5180 os         1 CEK      -0.297900
     22 C22          0.4130     4.5610    -7.7910 c3         1 CEK       0.246700
     23 C23          4.2210     2.8800    -6.9430 c          1 CEK       0.609700
     24 O24          4.5780     2.3460    -7.9760 o          1 CEK      -0.635100
     25 N25          4.9500     3.8840    -6.4170 ns         1 CEK      -0.187900
     26 C26          6.1720     4.3320    -7.0890 c3         1 CEK       0.106300
     27 C27          6.7950     5.4580    -6.3030 ca         1 CEK      -0.114300
     28 C28          7.5670     5.1790    -5.1620 ca         1 CEK      -0.020000
     29 C29          8.1440     6.2520    -4.4370 ca         1 CEK      -0.039000
     30 C30          7.9330     7.5710    -4.8700 ca         1 CEK      -0.076000
     31 C31          7.1790     7.8020    -5.9800 ca         1 CEK      -0.105000
     32 C32          6.6150     6.7480    -6.6970 ca         1 CEK      -0.076000
     33 C33          8.9150     5.9730    -3.2950 ca         1 CEK      -0.083000
     34 C34          9.0990     4.6830    -2.9030 ca         1 CEK      -0.101000
     35 C35          8.5320     3.6290    -3.6190 ca         1 CEK      -0.094000
     36 C36          7.7780     3.8590    -4.7280 ca         1 CEK      -0.104000
     37 H1          -0.3610     0.9120    -0.4600 hc         1 CEK       0.030033
     38 H1A         -0.3610    -0.8540    -0.5600 hc         1 CEK       0.030033
     39 H1B         -0.3610    -0.0580     1.0200 hc         1 CEK       0.030033
     40 H15         -0.3440     3.0580    -6.1950 ha         1 CEK       0.139000
     41 H17          1.1990    -1.5010    -4.8630 hc         1 CEK       0.018367
     42 H17A         2.9530    -1.6090    -5.0710 hc         1 CEK       0.018367
     43 H17B         2.2000    -2.2110    -3.5880 hc         1 CEK       0.018367
     44 HO19         5.0410     0.3300    -0.0230 ho         1 CEK       0.405000
     45 HO20        -1.1590     1.0970    -4.9990 ho         1 CEK       0.399000
     46 H22          0.5060     5.3300    -8.5480 h1         1 CEK       0.001367
     47 H22A         0.0060     4.9920    -6.8850 h1         1 CEK       0.001367
     48 H22B        -0.2490     3.7810    -8.1490 h1         1 CEK       0.001367
     49 HN25         4.6320     4.3540    -5.5930 hn         1 CEK       0.180500
     50 H26          5.9290     4.6790    -8.0860 h1         1 CEK       0.033200
     51 H26A         6.8710     3.5070    -7.1550 h1         1 CEK       0.033200
     52 H30          8.3650     8.4000    -4.3230 ha         1 CEK       0.107000
     53 H31          7.0210     8.8200    -6.3160 ha         1 CEK       0.104000
     54 H32          6.0200     6.9600    -7.5770 ha         1 CEK       0.108000
     55 H33          9.3610     6.7830    -2.7300 ha         1 CEK       0.107000
     56 H34          9.6950     4.4720    -2.0240 ha         1 CEK       0.103000
     57 H35          8.6940     2.6110    -3.2860 ha         1 CEK       0.100000
     58 H36          7.3440     3.0300    -5.2730 ha         1 CEK       0.118000
     59 H8           5.4510     0.3300    -2.2980 ha         1 CEK       0.126000
@<TRIPOS>BOND
     1     1     2 1   
     2     1    37 1   
     3     1    38 1   
     4     1    39 1   
     5     2     3 2   
     6     2     4 1   
     7     4     5 1   
     8     4     9 2   
     9     5     6 1   
    10     5    18 2   
    11     6     7 1   
    12     6    12 1   
    13     6    17 1   
    14     7     8 2   
    15     7    10 1   
    16     8     9 1   
    17     8    59 1   
    18     9    19 1   
    19    10    11 1   
    20    11    12 ar  
    21    11    13 ar  
    22    12    16 ar  
    23    13    14 ar  
    24    13    23 1   
    25    14    15 ar  
    26    14    21 1   
    27    15    16 ar  
    28    15    40 1   
    29    16    20 1   
    30    17    41 1   
    31    17    42 1   
    32    17    43 1   
    33    19    44 1   
    34    20    45 1   
    35    21    22 1   
    36    22    46 1   
    37    22    47 1   
    38    22    48 1   
    39    23    24 2   
    40    23    25 1   
    41    25    26 1   
    42    25    49 1   
    43    26    27 1   
    44    26    50 1   
    45    26    51 1   
    46    27    28 ar  
    47    27    32 ar  
    48    28    29 ar  
    49    28    36 ar  
    50    29    30 ar  
    51    29    33 ar  
    52    30    31 ar  
    53    30    52 1   
    54    31    32 ar  
    55    31    53 1   
    56    32    54 1   
    57    33    34 ar  
    58    33    55 1   
    59    34    35 ar  
    60    34    56 1   
    61    35    36 ar  
    62    35    57 1   
    63    36    58 1   
@<TRIPOS>SUBSTRUCTURE
     1 CEK         1 TEMP              0 ****  ****    0 ROOT
