@<TRIPOS>MOLECULE
CEL
   41    43     1     0     0
SMALL
bcc


@<TRIPOS>ATOM
      1 S1           0.0000     0.0000     0.0000 sy         1 CEL       0.944200
      2 C15          1.7620     0.0000     0.0000 ca         1 CEL      -0.239500
      3 C14          2.4530     0.0000     1.1970 ca         1 CEL       0.024000
      4 C13          3.8330    -0.0000     1.2000 ca         1 CEL      -0.108000
      5 C12          4.5290     0.0000    -0.0020 ca         1 CEL      -0.022200
      6 C17          3.8330     0.0090    -1.2020 ca         1 CEL      -0.108000
      7 C16          2.4510     0.0010    -1.1990 ca         1 CEL       0.024000
      8 N2           5.9290     0.0010    -0.0030 na         1 CEL       0.574300
      9 C3           6.7350    -0.7790    -0.7800 cc         1 CEL      -0.152300
     10 C5           6.2900    -1.7740    -1.7810 ca         1 CEL      -0.055000
     11 C10          5.0480    -2.3950    -1.6460 ca         1 CEL      -0.092000
     12 C9           4.6390    -3.3220    -2.5820 ca         1 CEL      -0.092000
     13 C8           5.4570    -3.6380    -3.6510 ca         1 CEL      -0.060300
     14 C11          5.0040    -4.6520    -4.6700 c3         1 CEL       0.058200
     15 C7           6.6920    -3.0310    -3.7870 ca         1 CEL      -0.092000
     16 C6           7.1110    -2.0980    -2.8600 ca         1 CEL      -0.092000
     17 C2           8.0280    -0.4650    -0.4700 cd         1 CEL      -0.240300
     18 C1           8.0040     0.5180     0.5190 cd         1 CEL       0.286600
     19 C4           9.2130     1.1550     1.1550 c3         1 CEL       0.572600
     20 F3           8.7980     2.0970     2.1030 f          1 CEL      -0.196633
     21 F2           9.9810     0.1700     1.7830 f          1 CEL      -0.196633
     22 F1           9.9790     1.7880     0.1710 f          1 CEL      -0.196633
     23 N1           6.7560     0.7960     0.8010 nc         1 CEL      -0.587800
     24 N3          -0.4960     1.5800     0.0030 nz         1 CEL      -0.130500
     25 O2          -0.3860    -0.5240    -1.2620 o          1 CEL      -0.496300
     26 O1          -0.3850    -0.5270     1.2620 o          1 CEL      -0.496300
     27 H14C         1.9100    -0.0010     2.1350 ha         1 CEL       0.130500
     28 H13C         4.3740    -0.0040     2.1390 ha         1 CEL       0.152500
     29 H17C         4.3720     0.0090    -2.1410 ha         1 CEL       0.152500
     30 H16C         1.9080     0.0070    -2.1360 ha         1 CEL       0.130500
     31 H10C         4.4060    -2.1480    -0.8090 ha         1 CEL       0.111000
     32 HC9          3.6740    -3.8040    -2.4780 ha         1 CEL       0.116000
     33 H111         4.1500    -5.1950    -4.2840 hc         1 CEL       0.016033
     34 H112         5.8110    -5.3460    -4.8720 hc         1 CEL       0.016033
     35 H113         4.7260    -4.1450    -5.5860 hc         1 CEL       0.016033
     36 HC7          7.3290    -3.2830    -4.6260 ha         1 CEL       0.116000
     37 HC6          8.0790    -1.6240    -2.9680 ha         1 CEL       0.111000
     38 HC2          8.9150    -0.9060    -0.9100 ha         1 CEL       0.160000
     39 HN31        -1.4960     1.6160     0.0030 hn         1 CEL       0.314467
     40 HN32        -0.1450     2.0380     0.8200 hn         1 CEL       0.314467
     41 H33         -0.1450     2.0410    -0.8140 hn         1 CEL       0.314467
@<TRIPOS>BOND
     1     1     2 1   
     2     1    24 1   
     3     1    25 2   
     4     1    26 2   
     5     2     3 ar  
     6     2     7 ar  
     7     3     4 ar  
     8     3    27 1   
     9     4     5 ar  
    10     4    28 1   
    11     5     6 ar  
    12     5     8 1   
    13     6     7 ar  
    14     6    29 1   
    15     7    30 1   
    16     8     9 1   
    17     8    23 1   
    18     9    10 1   
    19     9    17 2   
    20    10    11 ar  
    21    10    16 ar  
    22    11    12 ar  
    23    11    31 1   
    24    12    13 ar  
    25    12    32 1   
    26    13    14 1   
    27    13    15 ar  
    28    14    33 1   
    29    14    34 1   
    30    14    35 1   
    31    15    16 ar  
    32    15    36 1   
    33    16    37 1   
    34    17    18 1   
    35    17    38 1   
    36    18    19 1   
    37    18    23 2   
    38    19    20 1   
    39    19    21 1   
    40    19    22 1   
    41    24    39 1   
    42    24    40 1   
    43    24    41 1   
@<TRIPOS>SUBSTRUCTURE
     1 CEL         1 TEMP              0 ****  ****    0 ROOT
