@<TRIPOS>MOLECULE
molecule
   24    23     1     0     0
SMALL
bcc


@<TRIPOS>ATOM
      1 O1           0.0000     0.0000     0.0000 oh         1 CEM      -0.586800
      2 C2           1.4280     0.0000     0.0000 c3         1 CEM       0.143100
      3 C3           1.9370     0.0000     1.4420 c3         1 CEM       0.069500
      4 N4           1.4490     1.1950     2.1330 nu         1 CEM      -0.555000
      5 C5           2.1850     1.7520     3.1360 c2         1 CEM       0.031000
      6 C6           1.7320     2.8560     3.7760 ce         1 CEM      -0.583200
      7 C7           0.5080     3.4290     3.4050 c          1 CEM       0.595100
      8 O8           0.1030     4.4210     3.9780 o          1 CEM      -0.614100
      9 C9           1.9380     1.2490    -0.7200 c3         1 CEM      -0.234400
     10 C10          1.4350     1.2500    -2.1410 c          1 CEM       0.573900
     11 O11          0.7420     2.1560    -2.5360 o          1 CEM      -0.523100
     12 C12          1.4360    -1.2310     2.1520 c          1 CEM       0.888600
     13 O13          2.0890    -2.2480     2.1340 o          1 CEM      -0.804300
     14 O14          0.2630    -1.1990     2.8030 o          1 CEM      -0.804300
     15 HO1         -0.3140    -0.6970    -0.5510 ho         1 CEM       0.409000
     16 H2           1.7890    -0.8840    -0.5110 h1         1 CEM       0.058700
     17 H3           3.0200     0.0010     1.4420 h1         1 CEM       0.093700
     18 HN4          0.5530     1.5750     1.9010 hn         1 CEM       0.387800
     19 H5           2.1390     2.1380     2.1250 h4         1 CEM       0.294000
     20 H6           0.7640     2.4700     4.0680 ha         1 CEM       0.136000
     21 H7          -0.0600     3.0070     2.5840 h4         1 CEM      -0.102800
     22 H91          1.5770     2.1330    -0.2090 hc         1 CEM       0.070200
     23 H92          3.0210     1.2490    -0.7200 hc         1 CEM       0.070200
     24 H10          1.7220     0.4530    -2.8160 h4         1 CEM      -0.013800
@<TRIPOS>BOND
     1     1     2 1
     2     1    15 1
     3     2     3 1
     4     2     9 1
     5     2    16 1
     6     3     4 1
     7     3    12 1
     8     3    17 1
     9     4     5 1
    10     4    18 1
    11     5     6 2
    12     5    19 1
    13     6     7 1
    14     6    20 1
    15     7     8 2
    16     7    21 1
    17     9    10 1
    18     9    22 1
    19     9    23 1
    20    10    11 2
    21    10    24 1
    22    12    13 1
    23    12    14 1
@<TRIPOS>SUBSTRUCTURE
     1 CEM         1 TEMP              0 ****  ****    0 ROOT
