@<TRIPOS>MOLECULE
CEN
   42    43     1     0     0
SMALL
bcc


@<TRIPOS>ATOM
      1 S1           0.0000     0.0000     0.0000 ss         1 CEN      -0.432200
      2 C2           1.7990     0.0000     0.0000 c3         1 CEN       0.173900
      3 C3           2.3830     0.0000     1.3730 c2         1 CEN      -0.247400
      4 C4           1.8110    -0.4110     2.4990 ce         1 CEN      -0.093600
      5 N5           0.4910    -0.8790     2.4650 nj         1 CEN      -0.002000
      6 C6          -0.2880    -1.2820     1.2620 cy         1 CEN       0.063800
      7 C7          -1.5650    -1.1440     2.0730 cy         1 CEN      -0.055300
      8 C8          -0.5840    -1.0640     3.2210 c          1 CEN       0.609500
      9 O9          -0.7290    -1.1430     4.4220 o          1 CEN      -0.570500
     10 C13          3.7860     0.5340     1.4980 c3         1 CEN       0.272600
     11 N14         -2.3080     0.0930     1.8250 ns         1 CEN      -0.182900
     12 C15         -3.6360     0.1390     2.0540 c          1 CEN       0.574100
     13 O16         -4.2150    -0.8440     2.4640 o          1 CEN      -0.640100
     14 C17         -4.4010     1.4120     1.7980 c3         1 CEN      -0.102400
     15 C1           5.5770     1.2490     0.0340 c          1 CEN       0.687100
     16 O2           6.3190     1.2590     0.9880 o          1 CEN      -0.581000
     17 O3           4.3030     0.8500     0.1780 os         1 CEN      -0.458900
     18 C            6.0820     1.6840    -1.3170 c3         1 CEN      -0.045100
     19 C5          -5.8780     1.1960     2.1350 c3         1 CEN      -0.004400
     20 C9          -6.6540     2.4880     1.8750 c3         1 CEN      -0.137400
     21 C11         -8.1100     2.2750     2.2070 c          1 CEN       0.981600
     22 O           -8.9870     3.2800     2.0560 o          1 CEN      -0.909800
     23 O1          -8.4860     1.1990     2.6100 o          1 CEN      -0.909800
     24 C10          2.5570    -0.3770     3.7700 c          1 CEN       0.968800
     25 O4           3.7810     0.1860     3.8180 o          1 CEN      -0.852300
     26 O5           2.0690    -0.8560     4.7740 o          1 CEN      -0.852300
     27 HC21         2.1450     0.8820    -0.5240 h1         1 CEN       0.047200
     28 HC22         2.1450    -0.8820    -0.5240 h1         1 CEN       0.047200
     29 HC6         -0.0780    -2.2940     0.9380 h2         1 CEN       0.062700
     30 HC7         -2.1630    -2.0470     2.0850 h1         1 CEN       0.085700
     31 H131         4.4170    -0.2130     1.9640 h1         1 CEN       0.071700
     32 H132         3.7780     1.4310     2.1070 h1         1 CEN       0.071700
     33 H14         -1.8260     0.9120     1.5090 hn         1 CEN       0.200500
     34 H171        -4.0010     2.2050     2.4180 hc         1 CEN       0.019200
     35 H172        -4.3050     1.6870     0.7540 hc         1 CEN       0.019200
     36 HC1          5.4970     2.5270    -1.6670 hc         1 CEN       0.015700
     37 HC2          5.9890     0.8640    -2.0190 hc         1 CEN       0.015700
     38 HC3          7.1220     1.9760    -1.2380 hc         1 CEN       0.015700
     39 HC51        -6.2780     0.4030     1.5150 hc         1 CEN       0.034700
     40 HC52        -5.9740     0.9210     3.1780 hc         1 CEN       0.034700
     41 HC91        -6.5590     2.7630     0.8310 hc         1 CEN       0.000700
     42 HC92        -6.2550     3.2800     2.4950 hc         1 CEN       0.000700
@<TRIPOS>BOND
     1     1     2 1   
     2     1     6 1   
     3     2     3 1   
     4     2    27 1   
     5     2    28 1   
     6     3     4 2   
     7     3    10 1   
     8     4     5 1   
     9     4    24 1   
    10     5     6 1   
    11     5     8 1   
    12     6     7 1   
    13     6    29 1   
    14     7     8 1   
    15     7    11 1   
    16     7    30 1   
    17     8     9 2   
    18    10    17 1   
    19    10    31 1   
    20    10    32 1   
    21    11    12 1   
    22    11    33 1   
    23    12    13 2   
    24    12    14 1   
    25    14    19 1   
    26    14    34 1   
    27    14    35 1   
    28    15    16 2   
    29    15    17 1   
    30    15    18 1   
    31    18    36 1   
    32    18    37 1   
    33    18    38 1   
    34    19    20 1   
    35    19    39 1   
    36    19    40 1   
    37    20    21 1   
    38    20    41 1   
    39    20    42 1   
    40    21    22 1   
    41    21    23 1   
    42    24    25 1   
    43    24    26 1   
@<TRIPOS>SUBSTRUCTURE
     1 CEN         1 TEMP              0 ****  ****    0 ROOT
