@<TRIPOS>MOLECULE
molecule
   35    36     1     0     0
SMALL
bcc


@<TRIPOS>ATOM
      1 S1           0.0000     0.0000     0.0000 ss         1 CEO      -0.435200
      2 C2           1.8210     0.0000     0.0000 c3         1 CEO       0.073900
      3 C3           2.2630     0.0000     1.4490 ce         1 CEO      -0.274800
      4 C3'          3.2560     0.7870     1.8510 c2         1 CEO      -0.154000
      5 C4           1.5840    -0.8890     2.4010 ce         1 CEO       0.480600
      6 C4'          2.2070    -1.0640     3.7400 c          1 CEO       0.799300
      7 O4A          1.5620    -1.7540     4.6990 o          1 CEO      -0.803800
      8 O4B          3.2980    -0.5850     3.9680 o          1 CEO      -0.803800
      9 N5           0.4980    -1.5200     2.1720 n2         1 CEO      -0.615900
     10 C6          -0.2820    -1.5230     0.9470 c3         1 CEO       0.241600
     11 C7          -1.7680    -1.6280     1.2950 c3         1 CEO       0.030700
     12 C8          -2.0160    -2.9070     2.0530 c          1 CEO       0.580900
     13 O9          -2.4720    -2.8660     3.1710 o          1 CEO      -0.499100
     14 N10         -2.1570    -0.4850     2.1240 ns         1 CEO      -0.542900
     15 C11         -3.4170    -0.0100     2.0660 c          1 CEO       0.665100
     16 O12         -4.2280    -0.5280     1.3290 o          1 CEO      -0.627100
     17 C13         -3.8180     1.1660     2.9180 c3         1 CEO      -0.069100
     18 C14         -5.2670     1.4960     2.6680 cc         1 CEO       0.050600
     19 C15         -6.3710     1.0220     3.2960 cd         1 CEO      -0.174000
     20 C16         -7.6160     1.4740     2.8970 cd         1 CEO      -0.167000
     21 C17         -7.6950     2.3690     1.8830 cc         1 CEO      -0.059100
     22 S19         -5.9760     2.6060     1.4650 ss         1 CEO      -0.221800
     23 HC21         2.1890     0.8890    -0.4980 h1         1 CEO       0.062700
     24 HC22         2.1890    -0.8890    -0.4980 h1         1 CEO       0.062700
     25 H3'1         3.7540     1.4360     1.1410 ha         1 CEO       0.141000
     26 H3'2         3.5660     0.7800     2.8890 ha         1 CEO       0.141000
     27 HC6          0.0080    -2.3740     0.3430 h2         1 CEO       0.072700
     28 HC7         -2.3540    -1.6290     0.3830 h1         1 CEO       0.094700
     29 HC8         -1.8160    -3.8620     1.5840 h4         1 CEO      -0.011800
     30 H10         -1.4980    -0.0810     2.7590 hn         1 CEO       0.347500
     31 H131        -3.6790     0.9180     3.9630 hc         1 CEO       0.079200
     32 H132        -3.2040     2.0220     2.6650 hc         1 CEO       0.079200
     33 H15         -6.2790     0.3060     4.1040 ha         1 CEO       0.146000
     34 H16         -8.5140     1.1140     3.3840 ha         1 CEO       0.132000
     35 H17         -8.5730     2.8250     1.4430 h4         1 CEO       0.175000
@<TRIPOS>BOND
     1     1     2 1
     2     1    10 1
     3     2     3 1
     4     2    23 1
     5     2    24 1
     6     3     4 2
     7     3     5 1
     8     4    25 1
     9     4    26 1
    10     5     6 1
    11     5     9 2
    12     6     7 1
    13     6     8 1
    14     9    10 1
    15    10    11 1
    16    10    27 1
    17    11    12 1
    18    11    14 1
    19    11    28 1
    20    12    13 2
    21    12    29 1
    22    14    15 1
    23    14    30 1
    24    15    16 2
    25    15    17 1
    26    17    18 1
    27    17    31 1
    28    17    32 1
    29    18    19 2
    30    18    22 1
    31    19    20 1
    32    19    33 1
    33    20    21 2
    34    20    34 1
    35    21    22 1
    36    21    35 1
@<TRIPOS>SUBSTRUCTURE
     1 CEO         1 TEMP              0 ****  ****    0 ROOT
