@<TRIPOS>MOLECULE
molecule
   43    44     1     0     0
SMALL
bcc


@<TRIPOS>ATOM
      1 S1           0.0000     0.0000     0.0000 ss         1 CEP      -0.384200
      2 C2           1.8160     0.0000     0.0000 c3         1 CEP       0.098900
      3 C3           2.4420     0.0000     1.3830 c2         1 CEP      -0.302400
      4 C3'          3.8530     0.5370     1.3750 c3         1 CEP      -0.037200
      5 C2'          3.8490     2.0220     1.6220 c          1 CEP       0.653100
      6 O1'          2.8670     2.7240     1.8200 o          1 CEP      -0.517000
      7 O2'          5.1450     2.4590     1.5680 os         1 CEP      -0.442900
      8 C1'          5.3300     3.8640     1.7630 c3         1 CEP       0.126700
      9 C4           1.7820    -0.4650     2.4680 ce         1 CEP       0.151800
     10 C4'          2.3920    -0.3960     3.8090 c          1 CEP       0.891800
     11 O4A          3.1770     0.4600     4.1570 o          1 CEP      -0.821800
     12 O4B          1.9370    -1.4200     4.5560 o          1 CEP      -0.821800
     13 N5           0.5170    -1.0140     2.4470 nu         1 CEP      -0.784000
     14 C6          -0.2530    -1.2970     1.2520 c3         1 CEP       0.345600
     15 C7          -1.7330    -1.3790     1.6000 c3         1 CEP       0.000700
     16 C8          -2.0100    -2.4680     2.6070 c          1 CEP       0.557900
     17 O9          -1.8000    -3.6590     2.3930 o          1 CEP      -0.521100
     18 N10         -2.2040    -0.1450     2.1630 ns         1 CEP      -0.579900
     19 C11         -3.2420     0.5950     1.6020 c          1 CEP       0.687100
     20 O12         -3.8560     0.2790     0.5860 o          1 CEP      -0.598100
     21 C13         -3.5360     1.8490     2.4020 c3         1 CEP      -0.080100
     22 C14         -2.7770     3.0570     1.9200 cc         1 CEP      -0.098400
     23 C15         -2.8030     3.6110     0.6770 cd         1 CEP      -0.125000
     24 C16         -1.9480     4.7480     0.6030 cd         1 CEP      -0.160000
     25 C17         -1.3140     4.9980     1.8020 cc         1 CEP      -0.120100
     26 S19         -1.7520     3.8640     3.0080 ss         1 CEP      -0.025800
     27 H21          2.1570     0.8810    -0.5300 h1         1 CEP       0.051200
     28 H22          2.1570    -0.8810    -0.5300 h1         1 CEP       0.051200
     29 H3'1         4.4270     0.0460     2.1520 hc         1 CEP       0.071200
     30 H3'2         4.3080     0.3350     0.4130 hc         1 CEP       0.071200
     31 H1'1         4.9450     4.1470     2.7350 h1         1 CEP       0.032367
     32 H1'2         4.7990     4.4090     0.9920 h1         1 CEP       0.032367
     33 H1'3         6.3860     4.1000     1.7110 h1         1 CEP       0.032367
     34 H6           0.0710    -2.2470     0.8440 h2         1 CEP       0.071700
     35 H7          -2.2930    -1.5880     0.6970 h1         1 CEP       0.114700
     36 H88         -2.4170    -2.1780     3.5690 h4         1 CEP      -0.002800
     37 HN1         -1.7670     0.1980     2.9960 hn         1 CEP       0.333500
     38 H131        -3.2770     1.6680     3.4390 hc         1 CEP       0.062700
     39 H132        -4.5970     2.0590     2.3410 hc         1 CEP       0.062700
     40 H15         -3.3960     3.2360    -0.1490 ha         1 CEP       0.159000
     41 H16         -1.8110     5.3460    -0.2900 ha         1 CEP       0.144000
     42 H17         -0.6220     5.8160     1.9610 h4         1 CEP       0.164000
     43 HN2          0.0960    -1.2340     3.3280 hn         1 CEP       0.454800
@<TRIPOS>BOND
     1     1     2 1
     2     1    14 1
     3     2     3 1
     4     2    27 1
     5     2    28 1
     6     3     4 1
     7     3     9 2
     8     4     5 1
     9     4    29 1
    10     4    30 1
    11     5     6 2
    12     5     7 1
    13     7     8 1
    14     8    31 1
    15     8    32 1
    16     8    33 1
    17     9    10 1
    18     9    13 1
    19    10    11 1
    20    10    12 1
    21    13    14 1
    22    14    15 1
    23    14    34 1
    24    15    16 1
    25    15    18 1
    26    15    35 1
    27    16    17 2
    28    16    36 1
    29    18    19 1
    30    18    37 1
    31    19    20 2
    32    19    21 1
    33    21    22 1
    34    21    38 1
    35    21    39 1
    36    22    23 2
    37    22    26 1
    38    23    24 1
    39    23    40 1
    40    24    25 2
    41    24    41 1
    42    25    26 1
    43    25    42 1
    44    43    13 1
@<TRIPOS>SUBSTRUCTURE
     1 CEP         1 TEMP              0 ****  ****    0 ROOT
