@<TRIPOS>MOLECULE
CEQ
   20    19     1     0     0
SMALL
bcc


@<TRIPOS>ATOM
      1 SI1        -0.0090    0.0100   -0.0030 Si        1 CEQ      0.617000
      2 C2          1.8190    0.0860   -0.0400 c3        1 CEQ     -0.294433
      3 C3         -0.5710   -0.0220    1.7380 c3        1 CEQ     -0.294433
      4 C4         -0.5610   -1.5140   -0.8530 c3        1 CEQ     -0.294433
      5 C5         -0.6770    1.4930   -0.8590 c3        1 CEQ     -0.272400
      6 C6         -2.1740    1.4750   -0.8600 c3        1 CEQ     -0.076100
      7 H21         2.2070    0.1110   -1.0840 hc        1 CEQ      0.046922
      8 H22         2.2010    0.9950    0.4780 hc        1 CEQ      0.046922
      9 H23         2.2760   -0.7980    0.4620 hc        1 CEQ      0.046922
     10 H31        -1.6830   -0.0340    1.8120 hc        1 CEQ      0.046922
     11 H32        -0.2110    0.8700    2.3010 hc        1 CEQ      0.046922
     12 H33        -0.1930   -0.9250    2.2710 hc        1 CEQ      0.046922
     13 H41        -1.6730   -1.5930   -0.8760 hc        1 CEQ      0.046922
     14 H42        -0.2060   -1.5450   -1.9090 hc        1 CEQ      0.046922
     15 H43        -0.1740   -2.4260   -0.3450 hc        1 CEQ      0.046922
     16 H51        -0.3030    1.5360   -1.9130 hc        1 CEQ      0.051700
     17 H52        -0.3140    2.4270   -0.3610 hc        1 CEQ      0.051700
     18 H61        -2.5740    1.4720    0.1850 hc        1 CEQ      0.029367
     19 H62        -2.5860    2.3740   -1.3800 hc        1 CEQ      0.029367
     20 H63        -2.5620    0.5680   -1.3860 hc        1 CEQ      0.029367
@<TRIPOS>BOND
     1    1    2 1   
     2    1    3 1   
     3    1    4 1   
     4    1    5 1   
     5    2    7 1   
     6    2    8 1   
     7    2    9 1   
     8    3   10 1   
     9    3   11 1   
    10    3   12 1   
    11    4   13 1   
    12    4   14 1   
    13    4   15 1   
    14    5    6 1   
    15    5   16 1   
    16    5   17 1   
    17    6   18 1   
    18    6   19 1   
    19    6   20 1   
@<TRIPOS>SUBSTRUCTURE
     1 CEQ         1 TEMP              0 ****  ****    0 ROOT
