@<TRIPOS>MOLECULE
molecule
   20    19     1     0     0
SMALL
bcc


@<TRIPOS>ATOM
      1 Si1          0.0000     0.0000     0.0000 Si         1 CEQ       0.524000
      2 C2           1.8630     0.0000     0.0000 c3         1 CEQ      -0.271767
      3 C3          -0.6200     0.0000     1.7560 c3         1 CEQ      -0.271767
      4 C4          -0.6210    -1.5210    -0.8780 c3         1 CEQ      -0.271767
      5 C5          -0.6200     1.5200    -0.8770 c3         1 CEQ      -0.259400
      6 C6          -2.1500     1.5200    -0.8770 c3         1 CEQ      -0.074100
      7 H21          2.2250     0.0000    -1.0210 hc         1 CEQ       0.047589
      8 H22          2.2250    -0.8850     0.5110 hc         1 CEQ       0.047589
      9 H23          2.2250     0.8840     0.5110 hc         1 CEQ       0.047589
     10 H31         -0.4710     0.9810     2.1910 hc         1 CEQ       0.047589
     11 H32         -0.0730    -0.7370     2.3320 hc         1 CEQ       0.047589
     12 H33         -1.6750    -0.2440     1.7660 hc         1 CEQ       0.047589
     13 H41         -0.4730    -1.4080    -1.9450 hc         1 CEQ       0.047589
     14 H42         -0.0740    -2.3880    -0.5270 hc         1 CEQ       0.047589
     15 H43         -1.6760    -1.6520    -0.6710 hc         1 CEQ       0.047589
     16 H51         -0.2590     1.5210    -1.8980 hc         1 CEQ       0.051700
     17 H52         -0.2590     2.4050    -0.3660 hc         1 CEQ       0.051700
     18 H61         -2.5110     0.6360    -1.3870 hc         1 CEQ       0.031700
     19 H62         -2.5120     2.4050    -1.3870 hc         1 CEQ       0.031700
     20 H63         -2.5110     1.5200     0.1450 hc         1 CEQ       0.031700
@<TRIPOS>BOND
     1     1     2 1
     2     1     3 1
     3     1     4 1
     4     1     5 1
     5     2     7 1
     6     2     8 1
     7     2     9 1
     8     3    10 1
     9     3    11 1
    10     3    12 1
    11     4    13 1
    12     4    14 1
    13     4    15 1
    14     5     6 1
    15     5    16 1
    16     5    17 1
    17     6    18 1
    18     6    19 1
    19     6    20 1
@<TRIPOS>SUBSTRUCTURE
     1 CEQ         1 TEMP              0 ****  ****    0 ROOT
