@<TRIPOS>MOLECULE
CER
   36    37     1     0     0
SMALL
bcc


@<TRIPOS>ATOM
      1 C1           0.0000     0.0000     0.0000 c2         1 CER       0.024000
      2 N1           1.3470     0.0000     0.0000 nz         1 CER       0.812000
      3 O1          -3.3130     1.0440     2.8530 o          1 CER      -0.251000
      4 C2          -0.7540     0.0000     1.3050 c3         1 CER      -0.116000
      5 O2          -0.6060    -0.0010    -1.0500 o          1 CER      -0.141000
      6 C3          -2.2570    -0.0010     1.0260 c3         1 CER       0.045000
      7 O3          -2.6020     1.1650     0.2750 oh         1 CER      -0.295000
      8 C4          -3.0110    -0.0020     2.3300 c2         1 CER       0.208000
      9 C5          -3.3860    -1.3060     2.9840 c3         1 CER      -0.178000
     10 C6          -4.1390    -1.0260     4.2850 DU         1 CER       0.026000
     11 C7          -4.5160    -2.3310     4.9390 c2         1 CER      -0.142000
     12 C8          -4.0730    -2.6140     6.1380 c2         1 CER      -0.120000
     13 C9          -4.4500    -3.9180     6.7920 DU         1 CER       0.060000
     14 C10         -3.2020    -4.7070     7.0930 c2         1 CER      -0.206000
     15 C11         -2.9200    -5.0410     8.3270 c2         1 CER      -0.135000
     16 C12         -1.6710    -5.8300     8.6280 c3         1 CER      -0.073000
     17 HN11         1.6810     0.7860     0.5210 hn         1 CER       0.043333
     18 HN12         1.6810    -0.8450     0.4200 hn         1 CER       0.043333
     19 H21         -0.4920    -0.8840     1.8740 hc         1 CER       0.106500
     20 H22         -0.4930     0.8850     1.8730 hc         1 CER       0.106500
     21 H31         -2.5180    -0.8860     0.4580 h1         1 CER       0.069000
     22 HO3         -3.3600     0.9840    -0.2560 ho         1 CER       0.222000
     23 H51         -2.4880    -1.8720     3.2010 hc         1 CER       0.081500
     24 H52         -4.0190    -1.8760     2.3150 hc         1 CER       0.081500
     25 H61         -3.5060    -0.4570     4.9540 ha         1 CER       0.070500
     26 H62         -5.0370    -0.4590     4.0680 ha         1 CER       0.070500
     27 H71         -4.9710    -1.3760     5.1720 DU         1 CER       0.022000
     28 H81         -5.0310    -2.8110     6.6040 DU         1 CER       0.038000
     29 H91         -5.0840    -4.4880     6.1240 ha         1 CER       0.066500
     30 H92         -4.9830    -3.7200     7.7140 ha         1 CER       0.066500
     31 H101        -2.5490    -5.0160     6.2860 ha         1 CER       0.108000
     32 H111        -3.5850    -4.7540     9.1320 ha         1 CER       0.105000
     33 H121        -0.8030    -5.2700     8.3050 hc         1 CER       0.046333
     34 H122        -1.7060    -6.7770     8.1020 hc         1 CER       0.046333
     35 H123        -1.6080    -6.0130     9.6940 hc         1 CER       0.046333
     36 H13          1.6810     0.0550    -0.9420 hn         1 CER       0.043333
@<TRIPOS>BOND
     1     1     2 1   
     2     1     4 1   
     3     1     5 1   
     4     2    17 1   
     5     2    18 1   
     6     2    36 1   
     7     3     8 1   
     8     4     6 1   
     9     4    19 1   
    10     4    20 1   
    11     6     7 1   
    12     6     8 1   
    13     6    21 1   
    14     7    22 1   
    15     8     9 1   
    16     9    10 1   
    17     9    23 1   
    18     9    24 1   
    19    10    11 1   
    20    10    25 1   
    21    10    26 1   
    22    10    27 1   
    23    11    12 1   
    24    11    27 1   
    25    12    13 1   
    26    12    28 1   
    27    13    14 1   
    28    13    28 1   
    29    13    29 1   
    30    13    30 1   
    31    14    15 1   
    32    14    31 1   
    33    15    16 1   
    34    15    32 1   
    35    16    33 1   
    36    16    34 1   
    37    16    35 1   
@<TRIPOS>SUBSTRUCTURE
     1 CER         1 TEMP              0 ****  ****    0 ROOT
