@<TRIPOS>MOLECULE
molecule
   36    35     1     0     0
SMALL
bcc


@<TRIPOS>ATOM
      1 C1           0.0000     0.0000     0.0000 c          1 CER       0.482100
      2 N1           1.3470     0.0000     0.0000 nz         1 CER      -0.685400
      3 O1          -3.3130     1.0440     2.8530 o          1 CER      -0.452100
      4 C2          -0.7540     0.0000     1.3050 c3         1 CER      -0.150400
      5 O2          -0.6060    -0.0010    -1.0500 o          1 CER      -0.378100
      6 C3          -2.2570    -0.0010     1.0260 c3         1 CER       0.060100
      7 O3          -2.6020     1.1650     0.2750 oh         1 CER      -0.582800
      8 C4          -3.0110    -0.0020     2.3300 c          1 CER       0.518100
      9 C5          -3.3860    -1.3060     2.9840 c3         1 CER      -0.174400
     10 C6          -4.1390    -1.0260     4.2850 c3         1 CER      -0.033200
     11 C7          -4.5160    -2.3310     4.9390 c2         1 CER      -0.206200
     12 C8          -4.0730    -2.6140     6.1380 c2         1 CER      -0.141200
     13 C9          -4.4500    -3.9180     6.7920 c3         1 CER      -0.015000
     14 C10         -3.2020    -4.7070     7.0930 c2         1 CER      -0.192200
     15 C11         -2.9200    -5.0410     8.3270 c2         1 CER      -0.158200
     16 C12         -1.6710    -5.8300     8.6280 c3         1 CER      -0.062900
     17 HN11         1.6810     0.0710    -0.9410 hn         1 CER       0.479467
     18 HN12         1.6810    -0.8500     0.4090 hn         1 CER       0.479467
     19 H21         -0.4920    -0.8840     1.8740 hc         1 CER       0.106700
     20 H22         -0.4930     0.8850     1.8730 hc         1 CER       0.106700
     21 H31         -2.5180    -0.8860     0.4580 h1         1 CER       0.065700
     22 HO3         -3.3600     0.9840    -0.2560 ho         1 CER       0.438000
     23 H51         -4.0190    -1.8760     2.3150 hc         1 CER       0.067700
     24 H52         -2.4880    -1.8720     3.2010 hc         1 CER       0.067700
     25 H61         -3.5060    -0.4570     4.9540 hc         1 CER       0.064200
     26 H62         -5.0370    -0.4590     4.0680 hc         1 CER       0.064200
     27 H71         -5.1520    -3.0350     4.4160 ha         1 CER       0.130000
     28 H81         -3.4370    -1.9090     6.6610 ha         1 CER       0.127000
     29 H91         -5.0840    -4.4880     6.1240 hc         1 CER       0.058700
     30 H92         -4.9830    -3.7200     7.7140 hc         1 CER       0.058700
     31 H101        -2.5390    -4.9980     6.2880 ha         1 CER       0.119000
     32 H111        -3.5830    -4.7500     9.1320 ha         1 CER       0.129000
     33 H121        -1.6340    -6.0570     9.6870 hc         1 CER       0.043033
     34 H122        -1.6820    -6.7540     8.0620 hc         1 CER       0.043033
     35 H123        -0.8000    -5.2480     8.3520 hc         1 CER       0.043033
     36 H13          1.6810     0.7810     0.5290 hn         1 CER       0.479467
@<TRIPOS>BOND
     1     1     2 1
     2     1     4 1
     3     1     5 2
     4     2    17 1
     5     2    18 1
     6     3     8 2
     7     4     6 1
     8     4    19 1
     9     4    20 1
    10     6     7 1
    11     6     8 1
    12     6    21 1
    13     7    22 1
    14     8     9 1
    15     9    10 1
    16     9    23 1
    17     9    24 1
    18    10    11 1
    19    10    25 1
    20    10    26 1
    21    11    12 2
    22    11    27 1
    23    12    13 1
    24    12    28 1
    25    13    14 1
    26    13    29 1
    27    13    30 1
    28    14    15 2
    29    14    31 1
    30    15    16 1
    31    15    32 1
    32    16    33 1
    33    16    34 1
    34    16    35 1
    35    36     2 1
@<TRIPOS>SUBSTRUCTURE
     1 CER         1 TEMP              0 ****  ****    0 ROOT
