@<TRIPOS>MOLECULE
CES
   42    38     1     0     0
SMALL
bcc


@<TRIPOS>ATOM
      1 C14        -1.2850   -1.3970   -0.5850 c3        1 CES      0.045000
      2 O15        -0.2660   -2.2330   -0.0910 oh        1 CES     -0.298000
      3 C16        -0.9210   -0.0010    2.7750 c1        1 CES      0.157000
      4 C17        -1.4170   -0.2900    1.6390 c1        1 CES     -0.578000
      5 C19        -1.9680   -0.5710    0.4710 c2        1 CES      0.184000
      6 N16         0.4410   -0.2300   -1.9150 n2        1 CES      0.006000
      7 C13        -0.8200   -0.4630   -1.6980 c2        1 CES     -0.121000
      8 O4A        -5.6930   -2.2760    0.9810 o         1 CES     -0.253000
      9 O4B        -5.2490   -4.0010   -0.5960 o         1 CES     -0.253000
     10 C8         -4.9440   -1.1220   -2.1540 c2        1 CES      0.323000
     11 C3         -5.7000    0.9250   -6.9420 c2        1 CES      0.051000
     12 C2         -4.4600    0.4600   -6.8620 c1        1 CES     -1.210000
     13 S1         -3.5750   -0.3170   -6.0130 s4        1 CES      1.533000
     14 C6         -4.7570   -0.8190   -4.6730 c3        1 CES     -0.481000
     15 N5         -6.1140   -0.3230   -4.8770 n3        1 CES     -0.129000
     16 C4         -6.6090    0.4180   -5.8320 c1        1 CES     -0.111000
     17 C7         -4.1880   -0.3840   -3.3030 c3        1 CES     -0.066000
     18 N10        -2.7500   -0.6430   -3.2590 n         1 CES     -0.294000
     19 C11        -1.9720    0.1860   -2.4590 c2        1 CES      0.329000
     20 O12        -2.1470    1.4130   -2.3380 o         1 CES     -0.348000
     21 H16         0.3240   -1.6980    0.4590 ho        1 CES      0.217000
     22 H17        -2.9960   -0.2460    0.1880 ha        1 CES      0.197000
     23 H19        -2.0580   -2.1220   -1.0160 h1        1 CES      0.209000
     24 H183       -1.2140   -1.1520   -6.0740 ha        1 CES      0.002167
     25 H182        0.5880    1.4580   -4.6500 ha        1 CES      0.059000
     26 H181       -1.0730   -0.6440   -5.6420 ha        1 CES      0.002167
     27 H3'3       -6.3830    2.7890   -7.9190 ha        1 CES      0.110000
     28 H3'2       -2.8590   -3.8000   -2.4020 ha        1 CES      0.002167
     29 H3'1       -3.4210   -3.6290   -2.0600 ha        1 CES      0.002167
     30 H21        -2.5080   -2.9920   -5.1010 ha        1 CES      0.002167
     31 H22        -2.6610   -3.4460   -4.6200 ha        1 CES      0.002167
     32 H6         -3.4980   -1.4840   -6.5990 hs        1 CES     -0.243000
     33 HN5        -6.7320   -0.5770   -4.1150 hn        1 CES      0.284000
     34 H7         -4.8200   -1.9430   -4.6660 h2        1 CES      0.116000
     35 H10        -2.5620   -1.6220   -3.1300 hn        1 CES      0.208000
     36 O17         0.8170    0.6150   -2.8830 os        1 CES     -0.094000
     37 O9A        -4.2480   -1.6210   -1.2090 o         1 CES     -0.570500
     38 C18         0.0850    0.7170   -3.9840 c1        1 CES     -0.061000
     39 C4'        -5.4490   -3.0790    0.1350 c1        1 CES      0.474000
     40 H102       -4.3550    0.7230   -3.1520 h1        1 CES      0.133000
     41 O9         -6.1970   -1.1900   -2.1930 o         1 CES     -0.570500
     42 C3'        -6.2910    1.7050   -7.9120 c1        1 CES      0.033000
@<TRIPOS>BOND
     1    1    2 1   
     2    1    5 1   
     3    1    7 1   
     4    1   23 1   
     5    2   21 1   
     6    3    4 1   
     7    4    5 1   
     8    5   22 1   
     9    6    7 1   
    10    6   36 1   
    11    7   19 1   
    12    8   39 1   
    13    9   39 1   
    14   10   17 1   
    15   10   37 1   
    16   10   41 1   
    17   11   12 1   
    18   11   16 1   
    19   11   42 1   
    20   12   13 1   
    21   13   14 1   
    22   13   32 1   
    23   14   15 1   
    24   14   17 1   
    25   14   34 1   
    26   15   16 1   
    27   15   33 1   
    28   17   18 1   
    29   17   40 1   
    30   18   19 1   
    31   18   35 1   
    32   19   20 1   
    33   24   26 1   
    34   25   38 1   
    35   27   42 1   
    36   28   29 1   
    37   30   31 1   
    38   36   38 1   
@<TRIPOS>SUBSTRUCTURE
     1 CES         1 TEMP              0 ****  ****    0 ROOT
