@<TRIPOS>MOLECULE
CET
   32    32     1     0     0
SMALL
bcc


@<TRIPOS>ATOM
      1 N1           0.0000     0.0000     0.0000 nb         1 CET      -0.770000
      2 C2           1.3230     0.0000     0.0000 ca         1 CET       0.723000
      3 Cl2          2.1880     0.0030    -1.5050 cl         1 CET      -0.040000
      4 N3           1.9870     0.0000     1.1440 nb         1 CET      -0.779000
      5 C4           1.3260    -0.0010     2.2970 ca         1 CET       0.791900
      6 N5          -0.0020     0.0020     2.3010 nb         1 CET      -0.782000
      7 C6          -0.6660    -0.0030     1.1510 ca         1 CET       0.778900
      8 N7           2.0200    -0.0020     3.4900 nu         1 CET      -0.460900
      9 C8           3.4850    -0.0010     3.4860 c3         1 CET       0.243300
     10 C9           3.9720     1.2010     2.7910 c1         1 CET       0.167700
     11 N9           4.3470     2.1190     2.2380 n1         1 CET      -0.363800
     12 C10          3.9990    -0.0020     4.9270 c3         1 CET      -0.308400
     13 C11          5.5290    -0.0010     4.9220 c3         1 CET       0.270900
     14 C12          3.9930    -1.2490     2.7630 c3         1 CET      -0.038100
     15 N13         -2.0460    -0.0040     1.1500 nu         1 CET      -0.449900
     16 C14         -2.7780    -0.0020    -0.1200 c3         1 CET       0.115800
     17 C15         -4.2820    -0.0030     0.1600 c3         1 CET       0.013900
     18 HN7          1.7500    -0.6250     4.2260 hn         1 CET       0.305800
     19 H101         3.4570     0.7370     5.5040 hc         1 CET       0.046200
     20 H102         5.0550     0.2390     4.9330 hc         1 CET       0.046200
     21 H111         5.8880    -0.6020     4.0950 hc         1 CET      -0.000300
     22 H112         5.8940    -0.4140     5.8540 hc         1 CET      -0.000300
     23 H113         5.8890     1.0150     4.8120 hc         1 CET      -0.000300
     24 H121         4.9690    -1.5180     3.1490 hc         1 CET       0.028033
     25 H122         4.0690    -1.0450     1.7010 hc         1 CET       0.028033
     26 H123         3.3020    -2.0670     2.9250 hc         1 CET       0.028033
     27 HN3         -2.5470    -0.0390     2.0160 hn         1 CET       0.302800
     28 H141        -2.9700     1.0200    -0.4250 h1         1 CET       0.041200
     29 H142        -2.1870    -0.5000    -0.8780 h1         1 CET       0.041200
     30 H151        -4.8240    -0.0220    -0.7790 hc         1 CET       0.006367
     31 H152        -4.5410    -0.8790     0.7430 hc         1 CET       0.006367
     32 H153        -4.5480     0.8900     0.7120 hc         1 CET       0.006367
@<TRIPOS>BOND
     1     1     2 ar  
     2     1     7 ar  
     3     2     3 1   
     4     2     4 ar  
     5     4     5 ar  
     6     5     6 ar  
     7     5     8 1   
     8     6     7 ar  
     9     7    15 1   
    10     8     9 1   
    11     8    18 1   
    12     9    10 1   
    13     9    12 1   
    14     9    14 1   
    15    10    11 3   
    16    12    13 1   
    17    12    19 1   
    18    12    20 1   
    19    13    21 1   
    20    13    22 1   
    21    13    23 1   
    22    14    24 1   
    23    14    25 1   
    24    14    26 1   
    25    15    16 1   
    26    15    27 1   
    27    16    17 1   
    28    16    28 1   
    29    16    29 1   
    30    17    30 1   
    31    17    31 1   
    32    17    32 1   
@<TRIPOS>SUBSTRUCTURE
     1 CET         1 TEMP              0 ****  ****    0 ROOT
