@<TRIPOS>MOLECULE
molecule
   37    37     1     0     0
SMALL
bcc


@<TRIPOS>ATOM
      1 O1           0.0000     0.0000     0.0000 os         1 CEV      -0.420900
      2 C3           1.4520     0.0000     0.0000 c3         1 CEV       0.145400
      3 C5           1.9620     0.0000     1.4420 c3         1 CEV      -0.096100
      4 N49         -4.5960     1.2570    -2.2630 nz         1 CEV      -0.822600
      5 C57         -4.0760     0.0010    -2.8220 c3         1 CEV       0.104500
      6 C59         -4.5100    -0.1240    -4.2840 c3         1 CEV      -0.087400
      7 C61         -6.0330    -0.2490    -4.3550 c3         1 CEV      -0.189700
      8 C63         -2.5480     0.0010    -2.7420 c3         1 CEV      -0.102400
      9 C65         -6.6910     1.0480    -3.9370 c          1 CEV       0.689500
     10 O66         -6.8180     1.4260    -2.7920 o          1 CEV      -0.705500
     11 N69         -7.1140     1.7220    -5.0210 ns         1 CEV      -0.542900
     12 C71         -6.7970     0.9960    -6.2570 c3         1 CEV       0.082000
     13 C73         -6.4920    -0.4570    -5.8170 c3         1 CEV      -0.082400
     14 C82         -2.1140     0.0010    -1.2750 c3         1 CEV      -0.145400
     15 C84         -0.6090     0.0000    -1.1960 c          1 CEV       0.637100
     16 O88          0.0480     0.0000    -2.2090 o          1 CEV      -0.535000
     17 H3           1.8130     0.8850    -0.5110 h1         1 CEV       0.057200
     18 H3A          1.8130    -0.8850    -0.5110 h1         1 CEV       0.057200
     19 H5           3.0450    -0.0000     1.4430 hc         1 CEV       0.056033
     20 H5A          1.6000    -0.8840     1.9530 hc         1 CEV       0.056033
     21 H5B          1.6010     0.8850     1.9530 hc         1 CEV       0.056033
     22 H57         -4.4670    -0.8360    -2.2570 hx         1 CEV       0.114700
     23 H59         -4.0540    -1.0040    -4.7220 hc         1 CEV       0.088700
     24 H59A        -4.1940     0.7560    -4.8300 hc         1 CEV       0.088700
     25 H61         -6.3810    -1.0640    -3.7320 hc         1 CEV       0.103700
     26 H63         -2.1600     0.8860    -3.2330 hc         1 CEV       0.098200
     27 H63A        -2.1600    -0.8830    -3.2330 hc         1 CEV       0.098200
     28 HN69        -7.4710     2.6560    -4.9810 hn         1 CEV       0.360500
     29 H71         -7.6480     1.0120    -6.9280 h1         1 CEV       0.072200
     30 H71A        -5.9280     1.4330    -6.7330 h1         1 CEV       0.072200
     31 H73         -7.3860    -1.0680    -5.8580 hc         1 CEV       0.084700
     32 H73A        -5.6940    -0.8820    -6.4150 hc         1 CEV       0.084700
     33 H82         -2.5010     0.8850    -0.7840 hc         1 CEV       0.070200
     34 H82A        -2.5010    -0.8840    -0.7840 hc         1 CEV       0.070200
     35 HN49        -4.8660     1.8680    -3.0090 hn         1 CEV       0.461800
     36 H492        -3.8840     1.6970    -1.7130 hn         1 CEV       0.461800
     37 HN4A        -5.3900     1.0620    -1.6870 hn         1 CEV       0.461800
@<TRIPOS>BOND
     1     2     1 1
     2     1    15 1
     3     3     2 1
     4     2    17 1
     5     2    18 1
     6     3    19 1
     7     3    20 1
     8     3    21 1
     9     5     4 1
    10     4    35 1
    11     4    37 1
    12     6     5 1
    13     5     8 1
    14     5    22 1
    15     7     6 1
    16     6    23 1
    17     6    24 1
    18    13     7 1
    19     9     7 1
    20     7    25 1
    21    14     8 1
    22     8    26 1
    23     8    27 1
    24    11     9 1
    25     9    10 2
    26    12    11 1
    27    11    28 1
    28    12    13 1
    29    12    29 1
    30    12    30 1
    31    13    31 1
    32    13    32 1
    33    15    14 1
    34    14    33 1
    35    14    34 1
    36    16    15 2
    37    36     4 1
@<TRIPOS>SUBSTRUCTURE
     1 CEV         1 TEMP              0 ****  ****    0 ROOT
