@<TRIPOS>MOLECULE
molecule
   45    46     1     0     0
SMALL
bcc


@<TRIPOS>ATOM
      1 S1           0.0000     0.0000     0.0000 ss         1 CEW      -0.457200
      2 C2           1.8190     0.0000     0.0000 c3         1 CEW       0.122900
      3 C3           2.3180     0.0000     1.4160 c2         1 CEW      -0.254400
      4 C3'          3.7240     0.4860     1.6500 c3         1 CEW       0.002100
      5 C4           1.6340    -0.3870     2.4680 ce         1 CEW       0.092800
      6 C4'          2.3330    -0.3170     3.7650 c          1 CEW       0.879800
      7 O4A          1.6650    -0.5780     4.9050 o          1 CEW      -0.822800
      8 O4B          3.5120    -0.0260     3.8050 o          1 CEW      -0.822800
      9 N5           0.3260    -0.8520     2.4960 nu         1 CEW      -0.806000
     10 C6          -0.3550    -1.2670     1.2610 c3         1 CEW       0.348600
     11 C7          -1.8630    -1.3540     1.5010 c3         1 CEW      -0.008300
     12 C8          -2.3740    -0.0190     1.9800 c          1 CEW       0.583900
     13 O9          -3.2140     0.5690     1.3440 o          1 CEW      -0.527100
     14 N10         -2.5370    -1.7140     0.2510 ns         1 CEW      -0.509900
     15 C11         -3.7350    -2.3300     0.2850 c          1 CEW       0.605800
     16 O12         -4.2580    -2.5870     1.3520 o          1 CEW      -0.652100
     17 C13         -4.4170    -2.6950    -0.9790 ce         1 CEW       0.378600
     18 N16         -3.8150    -2.5050    -2.1250 n2         1 CEW      -0.353200
     19 O17         -4.4990    -2.7720    -3.3360 os         1 CEW      -0.205300
     20 C18         -3.7220    -2.5210    -4.5090 c3         1 CEW       0.128700
     21 C14         -5.7700    -3.2700    -0.9460 ce         1 CEW       0.048400
     22 C15         -6.6520    -2.9660    -1.9010 c2         1 CEW      -0.085400
     23 S16         -8.1540    -3.8310    -1.5380 ss         1 CEW      -0.184700
     24 C17         -7.5150    -4.6220    -0.0250 c3         1 CEW       0.452800
     25 N18         -8.2970    -4.2040     1.1460 nz         1 CEW      -0.839600
     26 N19         -6.1340    -4.1340     0.0700 nu         1 CEW      -0.793000
     27 H2           2.1790     0.8860    -0.5090 h1         1 CEW       0.064700
     28 H2A          2.1790    -0.8860    -0.5090 h1         1 CEW       0.064700
     29 H3'          4.3270    -0.3250     2.0410 hc         1 CEW       0.037700
     30 H3'A         3.7110     1.3020     2.3630 hc         1 CEW       0.037700
     31 H3'B         4.1470     0.8320     0.7150 hc         1 CEW       0.037700
     32 HN5         -0.1600    -0.9050     3.3690 hn         1 CEW       0.463800
     33 H6           0.0280    -2.2260     0.9350 h2         1 CEW       0.063700
     34 H7          -2.0660    -2.1090     2.2510 h1         1 CEW       0.102700
     35 H8          -2.0230     0.3880     2.9210 h4         1 CEW       0.041200
     36 HN10        -2.0960    -1.5260    -0.6270 hn         1 CEW       0.357500
     37 H18         -4.3020    -2.7770    -5.3870 h1         1 CEW       0.056033
     38 H18A        -3.4530    -1.4720    -4.5460 h1         1 CEW       0.056033
     39 H18B        -2.8220    -3.1240    -4.4820 h1         1 CEW       0.056033
     40 H15         -6.4810    -2.3090    -2.7450 h4         1 CEW       0.235000
     41 H17         -7.5260    -5.7010    -0.1310 hx         1 CEW       0.140700
     42 HN18        -9.2370    -4.5360     1.0560 hn         1 CEW       0.452133
     43 HN1A        -7.8860    -4.5860     1.9750 hn         1 CEW       0.452133
     44 HN19        -5.5130    -4.3970     0.8100 hn         1 CEW       0.504800
     45 H183        -8.2760    -3.2060     1.2220 hn         1 CEW       0.452133
@<TRIPOS>BOND
     1     1     2 1
     2     1    10 1
     3     2     3 1
     4     3     4 1
     5     3     5 2
     6     5     6 1
     7     5     9 1
     8     6     7 1
     9     6     8 1
    10     9    10 1
    11    10    11 1
    12    11    12 1
    13    11    14 1
    14    12    13 2
    15    14    15 1
    16    15    16 2
    17    15    17 1
    18    17    18 2
    19    17    21 1
    20    18    19 1
    21    19    20 1
    22    21    22 2
    23    21    26 1
    24    22    23 1
    25    23    24 1
    26    24    25 1
    27    24    26 1
    28     2    27 1
    29     2    28 1
    30     4    29 1
    31     4    30 1
    32     4    31 1
    33     9    32 1
    34    10    33 1
    35    11    34 1
    36    12    35 1
    37    14    36 1
    38    20    37 1
    39    20    38 1
    40    20    39 1
    41    22    40 1
    42    24    41 1
    43    25    42 1
    44    25    43 1
    45    26    44 1
    46    45    25 1
@<TRIPOS>SUBSTRUCTURE
     1 CEW         1 TEMP              0 ****  ****    0 ROOT
