@<TRIPOS>MOLECULE
CEW
   45    46     1     0     0
SMALL
bcc


@<TRIPOS>ATOM
      1 S1           0.0000     0.0000     0.0000 ss         1 CEW      -0.499200
      2 C2           1.8190     0.0000     0.0000 c3         1 CEW       0.214900
      3 C3           2.3180     0.0000     1.4160 c2         1 CEW      -0.261400
      4 C3'          3.7240     0.4860     1.6500 c3         1 CEW       0.068100
      5 C4           1.6340    -0.3870     2.4680 ce         1 CEW      -0.056200
      6 C4'          2.3330    -0.3170     3.7650 c          1 CEW       0.972800
      7 O4A          1.6650    -0.5780     4.9050 o          1 CEW      -0.869300
      8 O4B          3.5120    -0.0260     3.8050 o          1 CEW      -0.869300
      9 N5           0.3260    -0.8520     2.4960 nu         1 CEW      -0.406000
     10 C6          -0.3550    -1.2670     1.2610 c3         1 CEW       0.250600
     11 C7          -1.8630    -1.3540     1.5010 c3         1 CEW      -0.116300
     12 C8          -2.3740    -0.0190     1.9800 c          1 CEW       0.672900
     13 O9          -3.2140     0.5690     1.3440 o          1 CEW      -0.566100
     14 N10         -2.5370    -1.7140     0.2510 ns         1 CEW      -0.079900
     15 C11         -3.7350    -2.3300     0.2850 c          1 CEW       0.505800
     16 O12         -4.2580    -2.5870     1.3520 o          1 CEW      -0.719100
     17 C13         -4.4170    -2.6950    -0.9790 ce         1 CEW       0.324600
     18 N16         -3.8150    -2.5050    -2.1250 n2         1 CEW      -0.292200
     19 O17         -4.4990    -2.7720    -3.3360 os         1 CEW      -0.182300
     20 C18         -3.7220    -2.5210    -4.5090 c3         1 CEW       0.259700
     21 C14         -5.7700    -3.2700    -0.9460 ce         1 CEW      -0.051600
     22 C15         -6.6520    -2.9660    -1.9010 c2         1 CEW      -0.027400
     23 S16         -8.1540    -3.8310    -1.5380 ss         1 CEW      -0.263700
     24 C17         -7.5150    -4.6220    -0.0250 c3         1 CEW       0.173800
     25 N18         -8.2970    -4.2040     1.1460 nz         1 CEW      -0.004600
     26 N19         -6.1340    -4.1340     0.0700 nu         1 CEW      -0.374000
     27 H2           2.1790     0.8860    -0.5090 h1         1 CEW       0.040200
     28 H2A          2.1790    -0.8860    -0.5090 h1         1 CEW       0.040200
     29 H3'          4.3230    -0.3200     2.0560 hc         1 CEW       0.016033
     30 H3'A         3.7090     1.3130     2.3510 hc         1 CEW       0.016033
     31 H3'B         4.1530     0.8170     0.7120 hc         1 CEW       0.016033
     32 HN5         -0.1600    -0.9060     3.3690 hn         1 CEW       0.326800
     33 H6           0.0280    -2.2260     0.9350 h2         1 CEW       0.042700
     34 H7          -2.0660    -2.1090     2.2510 h1         1 CEW       0.077700
     35 H8          -2.0240     0.3880     2.9210 h4         1 CEW       0.002200
     36 HN10        -2.1040    -1.5110    -0.6270 hn         1 CEW       0.214500
     37 H18         -4.2920    -2.8010    -5.3860 h1         1 CEW       0.008700
     38 H18A        -2.8100    -3.1040    -4.4690 h1         1 CEW       0.008700
     39 H18B        -3.4750    -1.4670    -4.5600 h1         1 CEW       0.008700
     40 H15         -6.6900    -1.9610    -2.3030 h4         1 CEW       0.190000
     41 H17         -7.5260    -5.7010    -0.1310 hx         1 CEW       0.115700
     42 HN18        -8.2300    -3.2110     1.2540 hn         1 CEW       0.236467
     43 HN1A        -7.9380    -4.6540     1.9650 hn         1 CEW       0.236467
     44 HN19        -5.5130    -4.3970     0.8100 hn         1 CEW       0.361800
     45 H183        -9.2600    -4.4350     1.0040 hn         1 CEW       0.236467
@<TRIPOS>BOND
     1     1     2 1   
     2     1    10 1   
     3     2     3 1   
     4     2    27 1   
     5     2    28 1   
     6     3     4 1   
     7     3     5 2   
     8     4    29 1   
     9     4    30 1   
    10     4    31 1   
    11     5     6 1   
    12     5     9 1   
    13     6     7 1   
    14     6     8 1   
    15     9    10 1   
    16     9    32 1   
    17    10    11 1   
    18    10    33 1   
    19    11    12 1   
    20    11    14 1   
    21    11    34 1   
    22    12    13 2   
    23    12    35 1   
    24    14    15 1   
    25    14    36 1   
    26    15    16 2   
    27    15    17 1   
    28    17    18 2   
    29    17    21 1   
    30    18    19 1   
    31    19    20 1   
    32    20    37 1   
    33    20    38 1   
    34    20    39 1   
    35    21    22 2   
    36    21    26 1   
    37    22    23 1   
    38    22    40 1   
    39    23    24 1   
    40    24    25 1   
    41    24    26 1   
    42    24    41 1   
    43    25    42 1   
    44    25    43 1   
    45    25    45 1   
    46    26    44 1   
@<TRIPOS>SUBSTRUCTURE
     1 CEW         1 TEMP              0 ****  ****    0 ROOT
