@<TRIPOS>MOLECULE
molecule
   45    45     1     0     0
SMALL
bcc


@<TRIPOS>ATOM
      1 O1           0.0000     0.0000     0.0000 os         1 CEZ      -0.332600
      2 C1          -0.5810    -1.2750    -0.2810 c3         1 CEZ       0.340900
      3 C2          -2.0820    -1.2280     0.0150 c3         1 CEZ       0.117100
      4 O2          -2.2860    -0.9620     1.4040 oh         1 CEZ      -0.602800
      5 O5          -0.3780    -1.5970    -1.6590 os         1 CEZ      -0.395600
      6 C5          -0.9010    -2.8710    -2.0430 c3         1 CEZ       0.154100
      7 C4          -2.4150    -2.8890    -1.8170 c3         1 CEZ       0.101100
      8 O4          -2.9320    -4.1790    -2.1480 oh         1 CEZ      -0.611800
      9 C3          -2.7080    -2.5790    -0.3460 c3         1 CEZ       0.107100
     10 O3          -4.1210    -2.5220    -0.1420 oh         1 CEZ      -0.608800
     11 C6          -0.6030    -3.1190    -3.5230 c3         1 CEZ       0.152400
     12 O6           0.8100    -3.2170    -3.7140 oh         1 CEZ      -0.592800
     13 C11          1.7330     2.6060    -2.7870 c          1 CEZ       0.866600
     14 O11          0.8940     3.4340    -3.0590 o          1 CEZ      -0.845800
     15 C21          1.3280     1.3150    -2.1230 c3         1 CEZ       0.028100
     16 O21         -0.0960     1.2550    -2.0250 oh         1 CEZ      -0.602800
     17 C31          1.9380     1.2500    -0.7210 c3         1 CEZ       0.181100
     18 O31          1.5600     2.4130     0.0170 oh         1 CEZ      -0.594800
     19 C41          1.4290     0.0000     0.0000 c3         1 CEZ       0.142100
     20 C51          1.9400     0.0000     1.4420 c3         1 CEZ       0.128100
     21 O51          3.3630     0.1150     1.4440 oh         1 CEZ      -0.604800
     22 C61          1.5320    -1.3070     2.1270 c3         1 CEZ       0.098400
     23 O61          1.9110    -1.2610     3.5030 oh         1 CEZ      -0.619800
     24 H1          -0.1160    -2.0330     0.3370 h2         1 CEZ       0.018700
     25 H2          -2.5430    -0.4480    -0.5800 h1         1 CEZ       0.082700
     26 H3          -2.9630    -0.3140     1.5040 ho         1 CEZ       0.414000
     27 H4          -0.4390    -3.6450    -1.4420 h1         1 CEZ       0.049700
     28 H5          -2.8810    -2.1360    -2.4430 h1         1 CEZ       0.063700
     29 H6          -3.7390    -4.0820    -2.6260 ho         1 CEZ       0.407000
     30 H7          -2.2780    -3.3540     0.2780 h1         1 CEZ       0.050700
     31 H8          -4.3730    -3.1680     0.4960 ho         1 CEZ       0.405000
     32 H9          -1.0750    -4.0430    -3.8370 h1         1 CEZ       0.032700
     33 H10         -0.9910    -2.2970    -4.1130 h1         1 CEZ       0.032700
     34 H11          0.9880    -3.5220    -4.5880 ho         1 CEZ       0.397000
     35 H13          1.6860     0.4790    -2.7110 h1         1 CEZ       0.030700
     36 H14         -0.4800     1.5790    -2.8230 ho         1 CEZ       0.397000
     37 H15          3.0180     1.2070    -0.7990 h1         1 CEZ       0.071700
     38 H16          2.3060     2.9820     0.1100 ho         1 CEZ       0.399000
     39 H17          1.7900    -0.8840    -0.5110 h1         1 CEZ       0.058700
     40 H18          1.5090     0.8380     1.9770 h1         1 CEZ       0.070700
     41 H19          3.6450     0.5260     2.2440 ho         1 CEZ       0.405000
     42 H20          2.0280    -2.1390     1.6430 h1         1 CEZ       0.031700
     43 H21          0.4580    -1.4340     2.0530 h1         1 CEZ       0.031700
     44 H22          1.7430    -2.0980     3.9040 ho         1 CEZ       0.392000
     45 O12          3.0230     2.8410    -3.0700 o          1 CEZ      -0.845800
@<TRIPOS>BOND
     1     4     3 1
     2    10     9 1
     3     9     3 1
     4     9     7 1
     5     3     2 1
     6    23    22 1
     7    22    20 1
     8     8     7 1
     9    21    20 1
    10     2     1 1
    11     2     5 1
    12     7     6 1
    13     1    19 1
    14    20    19 1
    15     6     5 1
    16     6    11 1
    17    19    17 1
    18    17    18 1
    19    17    15 1
    20    11    12 1
    21    15    16 1
    22    15    13 1
    23    14    13 1
    24    13    45 1
    25     2    24 1
    26     3    25 1
    27     4    26 1
    28     6    27 1
    29     7    28 1
    30     8    29 1
    31     9    30 1
    32    10    31 1
    33    11    32 1
    34    11    33 1
    35    12    34 1
    36    15    35 1
    37    16    36 1
    38    17    37 1
    39    18    38 1
    40    19    39 1
    41    20    40 1
    42    21    41 1
    43    22    42 1
    44    22    43 1
    45    23    44 1
@<TRIPOS>SUBSTRUCTURE
     1 CEZ         1 TEMP              0 ****  ****    0 ROOT
