@<TRIPOS>MOLECULE
CEZ
   45    42     1     0     0
SMALL
bcc


@<TRIPOS>ATOM
      1 O1          0.1240   -0.3280   -0.6630 os        1 CEZ     -0.328000
      2 C1         -0.2290   -1.7260   -0.5670 c3        1 CEZ      0.285000
      3 C2         -1.5300   -1.8160    0.1080 c2        1 CEZ     -0.499000
      4 O2         -1.6710   -1.2310    1.3490 oh        1 CEZ     -0.259000
      5 O5         -0.2170   -2.0810   -1.9440 os        1 CEZ     -0.367000
      6 C5         -1.1280   -3.1060   -2.3850 c3        1 CEZ      0.122000
      7 C4         -2.4340   -3.1490   -1.7000 c2        1 CEZ     -0.526000
      8 O4         -5.1080   -4.7870   -0.5890 oh        1 CEZ     -0.421333
      9 C3         -2.5800   -2.5150   -0.4940 c2        1 CEZ      0.217000
     10 O3         -3.8080   -2.6010    0.1400 oh        1 CEZ     -0.309000
     11 C6         -1.3100   -2.8370   -3.8870 c3        1 CEZ     -0.029000
     12 O6         -0.0830   -2.8900   -4.5920 oh        1 CEZ     -0.351000
     13 C11         3.2950    2.9360   -2.4540 c2        1 CEZ      0.364000
     14 O11         2.3760    3.7200   -3.0940 oh        1 CEZ     -0.310000
     15 C21         2.9390    1.7050   -1.7660 c2        1 CEZ     -0.359000
     16 O21        -1.5960    0.3160   -2.5160 oh        1 CEZ     -0.421333
     17 C31         1.7030    1.2460   -1.4550 c2        1 CEZ      0.151000
     18 O31         0.6040    1.9710   -1.7930 oh        1 CEZ     -0.289000
     19 C41         1.5230   -0.0740   -0.7310 c3        1 CEZ      0.080000
     20 C51         2.1540   -0.0120    0.6220 c2        1 CEZ     -0.275000
     21 O51         3.4720    0.2220    4.9960 oh        1 CEZ     -0.421333
     22 C61         1.4880   -0.3470    1.7390 c2        1 CEZ     -0.012000
     23 O61         2.1490   -0.2770    2.9490 oh        1 CEZ     -0.304000
     24 H1         -0.9010   -0.2480   -2.8740 ho        1 CEZ      0.210167
     25 H2          0.6000   -2.2880   -0.0480 h2        1 CEZ      0.063000
     26 H3         -1.9150   -0.3070    1.1720 ho        1 CEZ      0.149000
     27 H4         -3.2390   -3.7140   -2.1710 ha        1 CEZ      0.127000
     28 H5         -0.5740   -4.0840   -2.2540 h1        1 CEZ      0.058000
     29 H6         -5.3460   -3.8670   -0.7380 ho        1 CEZ      0.210167
     30 H7         -4.1620   -4.7380   -0.4090 ho        1 CEZ      0.210167
     31 H8         -3.7030   -2.2000    1.0160 ho        1 CEZ      0.222000
     32 H9         -1.9460   -3.6420   -4.3390 h1        1 CEZ      0.086000
     33 H10        -1.7920   -1.8350   -4.0410 h1        1 CEZ      0.086000
     34 H11         0.5430   -2.3420   -4.1040 ho        1 CEZ      0.205000
     35 H13         3.8130    1.1080   -1.4550 ha        1 CEZ      0.159000
     36 H14         1.4900    3.3380   -3.0310 ho        1 CEZ      0.244000
     37 H15        -1.9340   -0.2090   -1.7770 ho        1 CEZ      0.210167
     38 H16        -0.2180    1.4660   -1.6080 ho        1 CEZ      0.295000
     39 H17         3.2010    0.3190    0.6430 ha        1 CEZ      0.138000
     40 H18         2.0300   -0.8810   -1.3400 h1        1 CEZ      0.115000
     41 H19         3.8300   -0.4080    4.3620 ho        1 CEZ      0.210167
     42 H20         3.1880    0.9580    4.4440 ho        1 CEZ      0.210167
     43 H21         0.4320   -0.6820    1.7570 h4        1 CEZ      0.186000
     44 H22         1.5400   -0.5960    3.6290 ho        1 CEZ      0.228000
     45 O12         4.4440    3.3910   -2.5490 o         1 CEZ     -0.359000
@<TRIPOS>BOND
     1    1    2 1   
     2    1   19 1   
     3    2    3 1   
     4    2    5 1   
     5    2   25 1   
     6    3    4 1   
     7    3    9 1   
     8    4   26 1   
     9    5    6 1   
    10    6    7 1   
    11    6   11 1   
    12    6   28 1   
    13    7    9 1   
    14    7   27 1   
    15    8   29 1   
    16    8   30 1   
    17    9   10 1   
    18   10   31 1   
    19   11   12 1   
    20   11   32 1   
    21   11   33 1   
    22   12   34 1   
    23   13   14 1   
    24   13   15 1   
    25   13   45 1   
    26   14   36 1   
    27   15   17 1   
    28   15   35 1   
    29   16   24 1   
    30   16   37 1   
    31   17   18 1   
    32   17   19 1   
    33   18   38 1   
    34   19   20 1   
    35   19   40 1   
    36   20   22 1   
    37   20   39 1   
    38   21   41 1   
    39   21   42 1   
    40   22   23 1   
    41   22   43 1   
    42   23   44 1   
@<TRIPOS>SUBSTRUCTURE
     1 CEZ         1 TEMP              0 ****  ****    0 ROOT
