@<TRIPOS>MOLECULE
molecule
    5     4     1     0     0
SMALL
bcc


@<TRIPOS>ATOM
      1 C1           0.0000     0.0000     0.0000 c3         1 CF0       0.154200
      2 F1           1.3990     0.0000     0.0000 f          1 CF0      -0.255300
      3 H1          -0.3610     0.0000     1.0210 h1         1 CF0       0.033700
      4 H2          -0.3610    -0.8850    -0.5110 h1         1 CF0       0.033700
      5 H3          -0.3610     0.8850    -0.5110 h1         1 CF0       0.033700
@<TRIPOS>BOND
     1     1     2 1
     2     1     3 1
     3     1     4 1
     4     1     5 1
@<TRIPOS>SUBSTRUCTURE
     1 CF0         1 TEMP              0 ****  ****    0 ROOT
