@<TRIPOS>MOLECULE
CF0
    5     4     1     0     0
SMALL
bcc


@<TRIPOS>ATOM
      1 C1          0.0130    0.0000   -0.0000 c3        1 CF0      0.148200
      2 F1          1.3880   -0.0000    0.0060 f         1 CF0     -0.249300
      3 H1         -0.3660   -0.0000    1.0540 h1        1 CF0      0.033700
      4 H2         -0.3590    0.9150   -0.5300 h1        1 CF0      0.033700
      5 H3         -0.3590   -0.9150   -0.5300 h1        1 CF0      0.033700
@<TRIPOS>BOND
     1    1    2 1   
     2    1    3 1   
     3    1    4 1   
     4    1    5 1   
@<TRIPOS>SUBSTRUCTURE
     1 CF0         1 TEMP              0 ****  ****    0 ROOT
