@<TRIPOS>MOLECULE
CF1
   33    34     1     0     0
SMALL
bcc


@<TRIPOS>ATOM
      1 O23          0.0000     0.0000     0.0000 o          1 CF1      -0.872800
      2 C23          1.3470     0.0000     0.0000 c          1 CF1       0.966200
      3 O24          1.9550     0.0000     1.0510 o          1 CF1      -0.872800
      4 C21          2.0840    -0.0000    -1.2760 ca         1 CF1      -0.052600
      5 C5           1.3890    -0.0490    -2.4880 ca         1 CF1      -0.095000
      6 C4           2.0870    -0.0490    -3.6810 ca         1 CF1       0.119100
      7 O1           1.4120    -0.0960    -4.8610 os         1 CF1      -0.309900
      8 C2           2.1940    -0.0940    -6.0570 c3         1 CF1       0.243700
      9 C3           3.4760     0.0010    -3.6810 ca         1 CF1      -0.233000
     10 C8           4.1720     0.0500    -2.4900 ca         1 CF1      -0.093000
     11 C7           3.4870     0.0560    -1.2820 ca         1 CF1      -0.056400
     12 N1           4.1880     0.1120    -0.0820 nu         1 CF1      -0.175000
     13 C9           4.4260    -1.0590     0.6430 ca         1 CF1       0.115600
     14 C10          5.0220    -0.9920     1.8970 ca         1 CF1      -0.080600
     15 Cl1          5.4690     0.5450     2.5670 cl         1 CF1      -0.050400
     16 C11          5.2560    -2.1530     2.6110 ca         1 CF1      -0.062000
     17 C12          4.8990    -3.3780     2.0780 ca         1 CF1      -0.138000
     18 C15          4.0650    -2.2910     0.1130 ca         1 CF1      -0.109000
     19 C13          4.3080    -3.4470     0.8310 ca         1 CF1      -0.163300
     20 C14          3.9160    -4.7840     0.2570 c3         1 CF1       0.636200
     21 F1           4.9800    -5.3010    -0.4900 f          1 CF1      -0.215633
     22 F3           3.6040    -5.6650     1.2980 f          1 CF1      -0.215633
     23 F2           2.7980    -4.6270    -0.5710 f          1 CF1      -0.215633
     24 H5           0.3070    -0.0200    -2.4940 ha         1 CF1       0.147000
     25 H2           2.7870     0.8120    -6.0980 h1         1 CF1      -0.011633
     26 H2A          2.8490    -0.9560    -6.0620 h1         1 CF1      -0.011633
     27 H2B          1.5370    -0.1340    -6.9180 h1         1 CF1      -0.011633
     28 H3           4.0150    -0.0010    -4.6200 ha         1 CF1       0.105000
     29 H8           5.2540     0.0910    -2.4970 ha         1 CF1       0.091000
     30 HN1          4.5650     0.9830     0.2360 hn         1 CF1       0.282800
     31 H11          5.7230    -2.1030     3.5880 ha         1 CF1       0.100000
     32 H12          5.0850    -4.2860     2.6380 ha         1 CF1       0.106000
     33 H15          3.6580    -2.3520    -0.8890 ha         1 CF1       0.135000
@<TRIPOS>BOND
     1     1     2 1   
     2     2     3 1   
     3     2     4 1   
     4     4     5 ar  
     5     4    11 ar  
     6     5     6 ar  
     7     5    24 1   
     8     6     7 1   
     9     6     9 ar  
    10     7     8 1   
    11     8    25 1   
    12     8    26 1   
    13     8    27 1   
    14     9    10 ar  
    15     9    28 1   
    16    10    11 ar  
    17    10    29 1   
    18    11    12 1   
    19    12    13 1   
    20    12    30 1   
    21    13    14 ar  
    22    13    18 ar  
    23    14    15 1   
    24    14    16 ar  
    25    16    17 ar  
    26    16    31 1   
    27    17    19 ar  
    28    17    32 1   
    29    18    19 ar  
    30    18    33 1   
    31    19    20 1   
    32    20    21 1   
    33    20    22 1   
    34    20    23 1   
@<TRIPOS>SUBSTRUCTURE
     1 CF1         1 TEMP              0 ****  ****    0 ROOT
