@<TRIPOS>MOLECULE
molecule
   69    74     1     0     0
SMALL
bcc


@<TRIPOS>ATOM
      1 O6A          0.0000     0.0000     0.0000 o          1 CF2      -0.523500
      2 C6A          1.2190     0.0000     0.0000 c          1 CF2       0.623000
      3 N1A          1.9120     0.0000     1.1600 ns         1 CF2      -0.466400
      4 C2A          3.2740     0.0000     1.1490 cc         1 CF2       0.446800
      5 N2A          3.9510     0.0000     2.3430 nz         1 CF2      -0.725600
      6 N3A          3.9600     0.0010     0.0270 nd         1 CF2      -0.550100
      7 C5AA         1.9440    -0.0060    -1.2150 cc         1 CF2       0.313800
      8 C4AA         3.3430     0.0000    -1.1600 cd         1 CF2       0.015800
      9 N7A          1.5930    -0.0130    -2.5240 nc         1 CF2      -0.617000
     10 C8A          2.6660    -0.0160    -3.2580 cd         1 CF2       0.513400
     11 N9A          3.7730    -0.0000    -2.4590 na         1 CF2      -0.162900
     12 C1'A         5.1670     0.0020    -2.9100 c3         1 CF2       0.244800
     13 C2'A         5.7060    -1.4430    -2.9500 c3         1 CF2      -0.159400
     14 C3'A         6.1400    -1.6440    -4.4230 c3         1 CF2       0.121100
     15 O3'A         7.3750    -2.3580    -4.4970 oh         1 CF2      -0.580800
     16 O4'A         5.2490     0.5260    -4.2460 os         1 CF2      -0.400600
     17 C4'A         6.3140    -0.1830    -4.9130 c3         1 CF2       0.131100
     18 C5'A         6.1490    -0.1010    -6.4320 c3         1 CF2       0.180400
     19 O1'          6.4330     1.2510    -6.8780 os         1 CF2      -0.439900
     20 C5'          6.3320     1.4940    -8.1980 c          1 CF2       0.755100
     21 O2'          6.0140     0.6000    -8.9570 o          1 CF2      -0.599000
     22 N1'          6.5820     2.7280    -8.6770 ns         1 CF2      -0.567900
     23 C4'          6.4730     2.9910   -10.1140 c3         1 CF2       0.110000
     24 C1'          6.8060     4.4590   -10.3910 c3         1 CF2       0.021300
     25 N10          6.6970     4.7220   -11.8270 na         1 CF2      -0.086100
     26 C9A          5.5020     5.1360   -12.3790 ca         1 CF2      -0.018600
     27 C5A          5.4070     5.3890   -13.7660 ca         1 CF2       0.312600
     28 C6           4.1750     5.8110   -14.3050 ca         1 CF2      -0.087300
     29 C7           3.0960     5.9710   -13.4900 ca         1 CF2      -0.115300
     30 C7M          1.7820     6.4230   -14.0740 c3         1 CF2      -0.045800
     31 C8           3.1910     5.7210   -12.1250 ca         1 CF2      -0.002300
     32 C8M          1.9810     5.9050   -11.2460 c3         1 CF2      -0.055800
     33 C9           4.3820     5.3070   -11.5700 ca         1 CF2      -0.191000
     34 N5           6.4670     5.2330   -14.5700 nc         1 CF2      -0.528000
     35 C4A          7.6190     4.8410   -14.0870 cd         1 CF2       0.294800
     36 C4           8.8110     4.6580   -14.9430 c          1 CF2       0.613000
     37 O4           8.7710     4.8660   -16.1410 o          1 CF2      -0.560500
     38 N3           9.9500     4.2490   -14.3370 ns         1 CF2      -0.590500
     39 C10          7.7740     4.5710   -12.6480 cd         1 CF2       0.083400
     40 N1           8.9550     4.1840   -12.1990 nc         1 CF2      -0.464400
     41 C2           9.9920     4.0210   -13.0160 c          1 CF2       0.858900
     42 O2          11.0490     3.6550   -12.5340 o          1 CF2      -0.602500
     43 HA'          1.4210    -0.0000     2.0320 hn         1 CF2       0.350500
     44 HA'1         4.9360    -0.0400     2.1680 hn         1 CF2       0.477800
     45 HA'2         3.6750    -0.7960     2.8830 hn         1 CF2       0.477800
     46 HAA          2.6790    -0.0300    -4.3410 h5         1 CF2       0.112100
     47 HAB          5.7740     0.6020    -2.2440 h2         1 CF2       0.093700
     48 HAA1         4.9240    -2.1450    -2.6880 hc         1 CF2       0.080200
     49 HAA2         6.5570    -1.5460    -2.2880 hc         1 CF2       0.080200
     50 HAC          5.3620    -2.1460    -4.9860 h1         1 CF2       0.062700
     51 HAD          7.2020    -3.2650    -4.6890 ho         1 CF2       0.423000
     52 HAE          7.2770     0.2070    -4.6060 h1         1 CF2       0.094700
     53 HAB1         6.8370    -0.7900    -6.9070 h1         1 CF2       0.072200
     54 HAB2         5.1330    -0.3640    -6.6990 h1         1 CF2       0.072200
     55 H1'          6.8630     3.4590    -8.0550 hn         1 CF2       0.325500
     56 H4'1         7.1660     2.3560   -10.6520 h1         1 CF2       0.073200
     57 H4'2         5.4620     2.7820   -10.4440 h1         1 CF2       0.073200
     58 H1'1         6.1130     5.0950    -9.8530 h1         1 CF2       0.084200
     59 H1'2         7.8170     4.6680   -10.0610 h1         1 CF2       0.084200
     60 H9           4.4470     5.1150   -10.5060 ha         1 CF2       0.144000
     61 H6           4.1020     6.0630   -15.3570 ha         1 CF2       0.169000
     62 H7M1         1.0220     5.6770   -13.8740 hc         1 CF2       0.051033
     63 H7M2         1.8880     6.5530   -15.1440 hc         1 CF2       0.051033
     64 H7M3         1.4910     7.3640   -13.6230 hc         1 CF2       0.051033
     65 H8M1         1.6170     6.9210   -11.3410 hc         1 CF2       0.054367
     66 H8M2         1.2050     5.2130   -11.5500 hc         1 CF2       0.054367
     67 H8M3         2.2520     5.7140   -10.2150 hc         1 CF2       0.054367
     68 H3          10.7730     4.1040   -14.8860 hn         1 CF2       0.359500
     69 H2A3         3.7390     0.8390     2.8470 hn         1 CF2       0.477800
@<TRIPOS>BOND
     1     1     2 2
     2     2     3 1
     3     2     7 1
     4     3     4 1
     5     4     5 1
     6     4     6 2
     7     6     8 1
     8     7     8 2
     9     7     9 1
    10     8    11 1
    11     9    10 2
    12    10    11 1
    13    11    12 1
    14    12    13 1
    15    12    16 1
    16    13    14 1
    17    14    15 1
    18    14    17 1
    19    16    17 1
    20    17    18 1
    21    18    19 1
    22    19    20 1
    23    20    21 2
    24    20    22 1
    25    22    23 1
    26    23    24 1
    27    24    25 1
    28    25    26 1
    29    25    39 1
    30    26    27 ar
    31    26    33 ar
    32    27    28 ar
    33    27    34 1
    34    28    29 ar
    35    29    30 1
    36    29    31 ar
    37    31    32 1
    38    31    33 ar
    39    34    35 2
    40    35    36 1
    41    35    39 1
    42    36    37 2
    43    36    38 1
    44    38    41 1
    45    39    40 2
    46    40    41 1
    47    41    42 2
    48     3    43 1
    49     5    44 1
    50     5    45 1
    51    10    46 1
    52    12    47 1
    53    13    48 1
    54    13    49 1
    55    14    50 1
    56    15    51 1
    57    17    52 1
    58    18    53 1
    59    18    54 1
    60    22    55 1
    61    23    56 1
    62    23    57 1
    63    24    58 1
    64    24    59 1
    65    33    60 1
    66    28    61 1
    67    30    62 1
    68    30    63 1
    69    30    64 1
    70    32    65 1
    71    32    66 1
    72    32    67 1
    73    38    68 1
    74    69     5 1
@<TRIPOS>SUBSTRUCTURE
     1 CF2         1 TEMP              0 ****  ****    0 ROOT
