@<TRIPOS>MOLECULE
CF2
   69    74     1     0     0
SMALL
bcc


@<TRIPOS>ATOM
      1 O6A          0.0000     0.0000     0.0000 o          1 CF2      -0.563500
      2 C6A          1.2190     0.0000     0.0000 c          1 CF2       0.521000
      3 N1A          1.9120     0.0000     1.1600 ns         1 CF2      -0.000400
      4 C2A          3.2740     0.0000     1.1490 cc         1 CF2      -0.027200
      5 N2A          3.9510     0.0000     2.3430 nz         1 CF2       0.225400
      6 N3A          3.9600     0.0010     0.0270 nd         1 CF2      -0.342100
      7 C5AA         1.9440    -0.0060    -1.2150 cc         1 CF2       0.284800
      8 C4AA         3.3430     0.0000    -1.1600 cd         1 CF2      -0.238200
      9 N7A          1.5930    -0.0130    -2.5240 nc         1 CF2      -0.507000
     10 C8A          2.6660    -0.0160    -3.2580 cd         1 CF2       0.331400
     11 N9A          3.7730    -0.0000    -2.4590 na         1 CF2       0.324100
     12 C1'A         5.1670     0.0020    -2.9100 c3         1 CF2       0.145800
     13 C2'A         5.7060    -1.4430    -2.9500 c3         1 CF2      -0.108400
     14 C3'A         6.1400    -1.6440    -4.4230 c3         1 CF2       0.169100
     15 O3'A         7.3750    -2.3580    -4.4970 oh         1 CF2      -0.560800
     16 O4'A         5.2490     0.5260    -4.2460 os         1 CF2      -0.388600
     17 C4'A         6.3140    -0.1830    -4.9130 c3         1 CF2       0.162100
     18 C5'A         6.1490    -0.1010    -6.4320 c3         1 CF2       0.246400
     19 O1'          6.4330     1.2510    -6.8780 os         1 CF2      -0.423900
     20 C5'          6.3320     1.4940    -8.1980 c          1 CF2       0.680100
     21 O2'          6.0140     0.6000    -8.9570 o          1 CF2      -0.649000
     22 N1'          6.5820     2.7280    -8.6770 ns         1 CF2      -0.158900
     23 C4'          6.4730     2.9910   -10.1140 c3         1 CF2       0.041000
     24 C1'          6.8060     4.4590   -10.3910 c3         1 CF2      -0.075700
     25 N10          6.6970     4.7220   -11.8270 na         1 CF2       0.380900
     26 C9A          5.5020     5.1360   -12.3790 ca         1 CF2      -0.179600
     27 C5A          5.4070     5.3890   -13.7660 ca         1 CF2       0.259600
     28 C6           4.1750     5.8110   -14.3050 ca         1 CF2      -0.059300
     29 C7           3.0960     5.9710   -13.4900 ca         1 CF2      -0.119300
     30 C7M          1.7820     6.4230   -14.0740 c3         1 CF2       0.062200
     31 C8           3.1910     5.7210   -12.1250 ca         1 CF2      -0.001300
     32 C8M          1.9810     5.9050   -11.2460 c3         1 CF2       0.050200
     33 C9           4.3820     5.3070   -11.5700 ca         1 CF2      -0.173000
     34 N5           6.4670     5.2330   -14.5700 nc         1 CF2      -0.376000
     35 C4A          7.6190     4.8410   -14.0870 cd         1 CF2       0.215800
     36 C4           8.8110     4.6580   -14.9430 c          1 CF2       0.524000
     37 O4           8.7710     4.8660   -16.1410 o          1 CF2      -0.607500
     38 N3           9.9500     4.2490   -14.3370 ns         1 CF2      -0.171500
     39 C10          7.7740     4.5710   -12.6480 cd         1 CF2      -0.110600
     40 N1           8.9550     4.1840   -12.1990 nc         1 CF2      -0.387400
     41 C2           9.9920     4.0210   -13.0160 c          1 CF2       0.736900
     42 O2          11.0490     3.6550   -12.5340 o          1 CF2      -0.652500
     43 HA'          1.4210    -0.0000     2.0320 hn         1 CF2       0.189500
     44 HA'1         4.9360    -0.0400     2.1680 hn         1 CF2       0.215800
     45 HA'2         3.6750    -0.7960     2.8830 hn         1 CF2       0.215800
     46 HAA          2.6790    -0.0300    -4.3410 h5         1 CF2       0.057100
     47 HAB          5.7740     0.6020    -2.2440 h2         1 CF2       0.051700
     48 HAA1         4.9240    -2.1450    -2.6880 hc         1 CF2       0.045700
     49 HAA2         6.5570    -1.5460    -2.2880 hc         1 CF2       0.045700
     50 HAC          5.3620    -2.1460    -4.9860 h1         1 CF2       0.026700
     51 HAD          7.2020    -3.2650    -4.6890 ho         1 CF2       0.408000
     52 HAE          7.2770     0.2070    -4.6060 h1         1 CF2       0.053700
     53 HAB1         6.8370    -0.7900    -6.9070 h1         1 CF2       0.028700
     54 HAB2         5.1330    -0.3640    -6.6990 h1         1 CF2       0.028700
     55 H1'          6.8630     3.4590    -8.0550 hn         1 CF2       0.176500
     56 H4'1         7.1660     2.3560   -10.6520 h1         1 CF2       0.043200
     57 H4'2         5.4620     2.7820   -10.4440 h1         1 CF2       0.043200
     58 H1'1         6.1130     5.0950    -9.8530 h1         1 CF2       0.056700
     59 H1'2         7.8170     4.6680   -10.0610 h1         1 CF2       0.056700
     60 H9           4.4470     5.1150   -10.5060 ha         1 CF2       0.126000
     61 H6           4.1020     6.0630   -15.3570 ha         1 CF2       0.132000
     62 H7M1         1.0220     5.6770   -13.8740 hc         1 CF2       0.015033
     63 H7M2         1.8880     6.5530   -15.1440 hc         1 CF2       0.015033
     64 H7M3         1.4910     7.3640   -13.6230 hc         1 CF2       0.015033
     65 H8M1         1.6170     6.9210   -11.3410 hc         1 CF2       0.017367
     66 H8M2         1.2050     5.2130   -11.5500 hc         1 CF2       0.017367
     67 H8M3         2.2520     5.7140   -10.2150 hc         1 CF2       0.017367
     68 H3          10.7730     4.1040   -14.8860 hn         1 CF2       0.208500
     69 H2A3         3.7390     0.8390     2.8470 hn         1 CF2       0.215800
@<TRIPOS>BOND
     1     1     2 2   
     2     2     3 1   
     3     2     7 1   
     4     3     4 1   
     5     3    43 1   
     6     4     5 1   
     7     4     6 2   
     8     5    44 1   
     9     5    45 1   
    10     5    69 1   
    11     6     8 1   
    12     7     8 2   
    13     7     9 1   
    14     8    11 1   
    15     9    10 2   
    16    10    11 1   
    17    10    46 1   
    18    11    12 1   
    19    12    13 1   
    20    12    16 1   
    21    12    47 1   
    22    13    14 1   
    23    13    48 1   
    24    13    49 1   
    25    14    15 1   
    26    14    17 1   
    27    14    50 1   
    28    15    51 1   
    29    16    17 1   
    30    17    18 1   
    31    17    52 1   
    32    18    19 1   
    33    18    53 1   
    34    18    54 1   
    35    19    20 1   
    36    20    21 2   
    37    20    22 1   
    38    22    23 1   
    39    22    55 1   
    40    23    24 1   
    41    23    56 1   
    42    23    57 1   
    43    24    25 1   
    44    24    58 1   
    45    24    59 1   
    46    25    26 1   
    47    25    39 1   
    48    26    27 ar  
    49    26    33 ar  
    50    27    28 ar  
    51    27    34 1   
    52    28    29 ar  
    53    28    61 1   
    54    29    30 1   
    55    29    31 ar  
    56    30    62 1   
    57    30    63 1   
    58    30    64 1   
    59    31    32 1   
    60    31    33 ar  
    61    32    65 1   
    62    32    66 1   
    63    32    67 1   
    64    33    60 1   
    65    34    35 2   
    66    35    36 1   
    67    35    39 1   
    68    36    37 2   
    69    36    38 1   
    70    38    41 1   
    71    38    68 1   
    72    39    40 2   
    73    40    41 1   
    74    41    42 2   
@<TRIPOS>SUBSTRUCTURE
     1 CF2         1 TEMP              0 ****  ****    0 ROOT
