@<TRIPOS>MOLECULE
CF3
   39    39     1     0     0
SMALL
bcc


@<TRIPOS>ATOM
      1 C4           0.0000     0.0000     0.0000 ca         1 CF3      -0.117000
      2 C2           1.3810     0.0000     0.0000 ca         1 CF3      -0.082500
      3 C1           2.0740     0.0000     1.1960 ca         1 CF3      -0.114000
      4 C3           1.3870     0.0000     2.3970 ca         1 CF3      -0.082500
      5 C5           0.0060     0.0060     2.4030 ca         1 CF3      -0.117000
      6 C14         -0.6930     0.0000     1.2030 ca         1 CF3      -0.090400
      7 N1          -2.0930    -0.0000     1.2060 ns         1 CF3      -0.038100
      8 C12         -2.7690     0.6410     0.2320 c          1 CF3       0.558100
      9 O1          -2.1680     1.3010    -0.5890 o          1 CF3      -0.631100
     10 C10         -4.2700     0.5390     0.1650 c3         1 CF3      -0.099400
     11 C8          -4.7850     1.3530    -1.0240 c3         1 CF3      -0.015400
     12 C6          -6.3090     1.2490    -1.0920 c3         1 CF3      -0.030400
     13 C7          -6.8240     2.0630    -2.2810 c3         1 CF3      -0.027400
     14 C9          -8.3480     1.9590    -2.3490 c3         1 CF3      -0.021400
     15 C11         -8.8630     2.7730    -3.5380 c3         1 CF3      -0.109400
     16 C13        -10.3640     2.6700    -3.6050 c          1 CF3       0.543100
     17 O2         -10.9620     2.0130    -2.7870 o          1 CF3      -0.475100
     18 C15        -11.1210     3.3870    -4.6940 c3         1 CF3       0.485900
     19 F3         -11.8300     2.4560    -5.4600 f          1 CF3      -0.196967
     20 F1         -10.2190     4.0750    -5.5130 f          1 CF3      -0.196967
     21 F2         -12.0160     4.2960    -4.1190 f          1 CF3      -0.196967
     22 H4          -0.5420    -0.0020    -0.9380 ha         1 CF3       0.121000
     23 H2           1.9220    -0.0000    -0.9390 ha         1 CF3       0.103000
     24 H1           3.1570    -0.0020     1.1930 ha         1 CF3       0.103000
     25 H3           1.9330     0.0020     3.3320 ha         1 CF3       0.103000
     26 H5          -0.5320     0.0060     3.3440 ha         1 CF3       0.121000
     27 HN1         -2.5910    -0.5000     1.9160 hn         1 CF3       0.166500
     28 H101        -4.5560    -0.4990     0.0430 hc         1 CF3       0.028700
     29 H102        -4.7000     0.9260     1.0810 hc         1 CF3       0.028700
     30 H81         -4.3550     0.9650    -1.9400 hc         1 CF3       0.030700
     31 H82         -4.4990     2.3900    -0.9020 hc         1 CF3       0.030700
     32 H61         -6.7390     1.6360    -0.1760 hc         1 CF3       0.014200
     33 H62         -6.5950     0.2110    -1.2140 hc         1 CF3       0.014200
     34 H71         -6.3940     1.6750    -3.1970 hc         1 CF3       0.017700
     35 H72         -6.5380     3.1000    -2.1590 hc         1 CF3       0.017700
     36 H91         -8.6340     0.9210    -2.4710 hc         1 CF3       0.027700
     37 H92         -8.7780     2.3460    -1.4330 hc         1 CF3       0.027700
     38 H111        -8.4330     2.3850    -4.4540 hc         1 CF3       0.048700
     39 H112        -8.5770     3.8100    -3.4160 hc         1 CF3       0.048700
@<TRIPOS>BOND
     1     1     2 ar  
     2     1     6 ar  
     3     1    22 1   
     4     2     3 ar  
     5     2    23 1   
     6     3     4 ar  
     7     3    24 1   
     8     4     5 ar  
     9     4    25 1   
    10     5     6 ar  
    11     5    26 1   
    12     6     7 1   
    13     7     8 1   
    14     7    27 1   
    15     8     9 2   
    16     8    10 1   
    17    10    11 1   
    18    10    28 1   
    19    10    29 1   
    20    11    12 1   
    21    11    30 1   
    22    11    31 1   
    23    12    13 1   
    24    12    32 1   
    25    12    33 1   
    26    13    14 1   
    27    13    34 1   
    28    13    35 1   
    29    14    15 1   
    30    14    36 1   
    31    14    37 1   
    32    15    16 1   
    33    15    38 1   
    34    15    39 1   
    35    16    17 2   
    36    16    18 1   
    37    18    19 1   
    38    18    20 1   
    39    18    21 1   
@<TRIPOS>SUBSTRUCTURE
     1 CF3         1 TEMP              0 ****  ****    0 ROOT
