@<TRIPOS>MOLECULE
molecule
   44    46     1     0     0
SMALL
bcc


@<TRIPOS>ATOM
      1 O4           0.0000     0.0000     0.0000 o          1 CF4      -0.603500
      2 C4           1.2180     0.0000     0.0000 c          1 CF4       0.612000
      3 N3           1.8830     0.0000     1.1340 ns         1 CF4      -0.580500
      4 C2           3.2040     0.0110     1.1310 c          1 CF4       0.857900
      5 O2           3.8230     0.0130     2.1650 o          1 CF4      -0.611500
      6 N1           3.9060     0.0130     0.0280 nc         1 CF4      -0.470400
      7 C4A          1.9560     0.0010    -1.2110 cd         1 CF4       0.274800
      8 C10          3.3320     0.0190    -1.1740 cd         1 CF4       0.092400
      9 N5           1.3260    -0.0150    -2.3610 nc         1 CF4      -0.537000
     10 C5A          1.9650    -0.0050    -3.5080 ca         1 CF4       0.311600
     11 C6           1.2260    -0.0220    -4.6660 ca         1 CF4      -0.099300
     12 C7           1.8320    -0.0040    -5.9030 ca         1 CF4      -0.122300
     13 C7M          1.0390    -0.0120    -7.1690 c3         1 CF4      -0.041800
     14 C8           3.1780     0.0070    -5.9560 ca         1 CF4      -0.000300
     15 C8M          3.8250    -0.0020    -7.2890 c3         1 CF4      -0.063800
     16 C9           3.9350     0.0070    -4.8090 ca         1 CF4      -0.175000
     17 C9A          3.3400     0.0060    -3.5580 ca         1 CF4      -0.003600
     18 N10          4.0810     0.0460    -2.3640 na         1 CF4      -0.080100
     19 C1'          5.5520     0.0060    -2.3470 c3         1 CF4       0.037300
     20 C2'          6.3710     1.2940    -2.3210 c3         1 CF4      -0.098400
     21 C3'          7.8160     1.1150    -2.8330 c3         1 CF4      -0.109400
     22 C4'          8.3540     2.2010    -3.7840 c3         1 CF4       0.132000
     23 N1'          9.7780     2.2440    -3.5030 ns         1 CF4      -0.603900
     24 C5'         10.7510     1.7200    -4.2130 c          1 CF4       0.960600
     25 O1'         12.1450     1.7860    -3.8230 o          1 CF4      -0.874800
     26 O2'         10.5590     1.1640    -5.2520 o          1 CF4      -0.874800
     27 H3           1.3860    -0.0080     2.0030 hn         1 CF4       0.348500
     28 H6           0.1450    -0.0500    -4.6050 ha         1 CF4       0.156000
     29 H7M1        -0.0180     0.0160    -6.9330 hc         1 CF4       0.046367
     30 H7M2         1.2600    -0.9130    -7.7290 hc         1 CF4       0.046367
     31 H7M3         1.2990     0.8560    -7.7640 hc         1 CF4       0.046367
     32 H8M1         3.4790    -0.8590    -7.8530 hc         1 CF4       0.056700
     33 H8M2         4.9000    -0.0600    -7.1680 hc         1 CF4       0.056700
     34 H8M3         3.5710     0.9070    -7.8200 hc         1 CF4       0.056700
     35 H9           5.0150     0.0150    -4.8840 ha         1 CF4       0.164000
     36 H1'1         5.8630    -0.5490    -3.2240 h1         1 CF4       0.073200
     37 H1'2         5.8430    -0.5710    -1.4780 h1         1 CF4       0.073200
     38 H2'1         6.4070     1.6610    -1.3030 hc         1 CF4       0.047700
     39 H2'2         5.8740     2.0330    -2.9390 hc         1 CF4       0.047700
     40 H3'1         7.8720     0.1630    -3.3480 hc         1 CF4       0.051200
     41 H3'2         8.4710     1.0700    -1.9720 hc         1 CF4       0.051200
     42 H4'1         7.8960     3.1580    -3.5650 h1         1 CF4       0.035200
     43 H4'2         8.1800     1.9220    -4.8160 h1         1 CF4       0.035200
     44 H1'         10.0500     2.7300    -2.6720 hn         1 CF4       0.281500
@<TRIPOS>BOND
     1     1     2 2
     2     2     3 1
     3     2     7 1
     4     3     4 1
     5     4     5 2
     6     4     6 1
     7     6     8 2
     8     7     8 1
     9     7     9 2
    10     8    18 1
    11     9    10 1
    12    10    11 ar
    13    10    17 ar
    14    11    12 ar
    15    12    13 1
    16    12    14 ar
    17    14    15 1
    18    14    16 ar
    19    16    17 ar
    20    17    18 1
    21    18    19 1
    22    19    20 1
    23    20    21 1
    24    21    22 1
    25    22    23 1
    26    23    24 1
    27    24    25 1
    28    24    26 1
    29     3    27 1
    30    11    28 1
    31    13    29 1
    32    13    30 1
    33    13    31 1
    34    15    32 1
    35    15    33 1
    36    15    34 1
    37    16    35 1
    38    19    36 1
    39    19    37 1
    40    20    38 1
    41    20    39 1
    42    21    40 1
    43    21    41 1
    44    22    42 1
    45    22    43 1
    46    23    44 1
@<TRIPOS>SUBSTRUCTURE
     1 CF4         1 TEMP              0 ****  ****    0 ROOT
