@<TRIPOS>MOLECULE
CF4
   44    46     1     0     0
SMALL
bcc


@<TRIPOS>ATOM
      1 O4           0.0000     0.0000     0.0000 o          1 CF4      -0.655500
      2 C4           1.2180     0.0000     0.0000 c          1 CF4       0.515000
      3 N3           1.8830     0.0000     1.1340 ns         1 CF4      -0.144500
      4 C2           3.2040     0.0110     1.1310 c          1 CF4       0.729900
      5 O2           3.8230     0.0130     2.1650 o          1 CF4      -0.660500
      6 N1           3.9060     0.0130     0.0280 nc         1 CF4      -0.388400
      7 C4A          1.9560     0.0010    -1.2110 cd         1 CF4       0.188800
      8 C10          3.3320     0.0190    -1.1740 cd         1 CF4      -0.096600
      9 N5           1.3260    -0.0150    -2.3610 nc         1 CF4      -0.371000
     10 C5A          1.9650    -0.0050    -3.5080 ca         1 CF4       0.248600
     11 C6           1.2260    -0.0220    -4.6660 ca         1 CF4      -0.073300
     12 C7           1.8320    -0.0040    -5.9030 ca         1 CF4      -0.128300
     13 C7M          1.0390    -0.0120    -7.1690 c3         1 CF4       0.065200
     14 C8           3.1780     0.0070    -5.9560 ca         1 CF4      -0.005300
     15 C8M          3.8250    -0.0020    -7.2890 c3         1 CF4       0.038200
     16 C9           3.9350     0.0070    -4.8090 ca         1 CF4      -0.147000
     17 C9A          3.3400     0.0060    -3.5580 ca         1 CF4      -0.161600
     18 N10          4.0810     0.0460    -2.3640 na         1 CF4       0.377900
     19 C1'          5.5520     0.0060    -2.3470 c3         1 CF4      -0.066700
     20 C2'          6.3710     1.2940    -2.3210 c3         1 CF4      -0.025400
     21 C3'          7.8160     1.1150    -2.8330 c3         1 CF4      -0.065400
     22 C4'          8.3540     2.2010    -3.7840 c3         1 CF4       0.071000
     23 N1'          9.7780     2.2440    -3.5030 ns         1 CF4      -0.247900
     24 C5'         10.7510     1.7200    -4.2130 c          1 CF4       0.928600
     25 O1'         12.1450     1.7860    -3.8230 o          1 CF4      -0.917300
     26 O2'         10.5590     1.1640    -5.2520 o          1 CF4      -0.917300
     27 H3           1.3860    -0.0080     2.0030 hn         1 CF4       0.195500
     28 H6           0.1450    -0.0500    -4.6050 ha         1 CF4       0.122000
     29 H7M1        -0.0180     0.0160    -6.9330 hc         1 CF4       0.011700
     30 H7M2         1.2600    -0.9130    -7.7290 hc         1 CF4       0.011700
     31 H7M3         1.2990     0.8560    -7.7640 hc         1 CF4       0.011700
     32 H8M1         3.4790    -0.8590    -7.8530 hc         1 CF4       0.021700
     33 H8M2         4.9000    -0.0600    -7.1680 hc         1 CF4       0.021700
     34 H8M3         3.5710     0.9070    -7.8200 hc         1 CF4       0.021700
     35 H9           5.0150     0.0150    -4.8840 ha         1 CF4       0.143000
     36 H1'1         5.8630    -0.5490    -3.2240 h1         1 CF4       0.048700
     37 H1'2         5.8430    -0.5710    -1.4780 h1         1 CF4       0.048700
     38 H2'1         6.4070     1.6610    -1.3030 hc         1 CF4       0.017200
     39 H2'2         5.8740     2.0330    -2.9390 hc         1 CF4       0.017200
     40 H3'1         7.8720     0.1630    -3.3480 hc         1 CF4       0.024700
     41 H3'2         8.4710     1.0700    -1.9720 hc         1 CF4       0.024700
     42 H4'1         7.8960     3.1580    -3.5650 h1         1 CF4       0.007700
     43 H4'2         8.1800     1.9220    -4.8160 h1         1 CF4       0.007700
     44 H1'         10.0500     2.7300    -2.6720 hn         1 CF4       0.149500
@<TRIPOS>BOND
     1     1     2 2   
     2     2     3 1   
     3     2     7 1   
     4     3     4 1   
     5     3    27 1   
     6     4     5 2   
     7     4     6 1   
     8     6     8 2   
     9     7     8 1   
    10     7     9 2   
    11     8    18 1   
    12     9    10 1   
    13    10    11 ar  
    14    10    17 ar  
    15    11    12 ar  
    16    11    28 1   
    17    12    13 1   
    18    12    14 ar  
    19    13    29 1   
    20    13    30 1   
    21    13    31 1   
    22    14    15 1   
    23    14    16 ar  
    24    15    32 1   
    25    15    33 1   
    26    15    34 1   
    27    16    17 ar  
    28    16    35 1   
    29    17    18 1   
    30    18    19 1   
    31    19    20 1   
    32    19    36 1   
    33    19    37 1   
    34    20    21 1   
    35    20    38 1   
    36    20    39 1   
    37    21    22 1   
    38    21    40 1   
    39    21    41 1   
    40    22    23 1   
    41    22    42 1   
    42    22    43 1   
    43    23    24 1   
    44    23    44 1   
    45    24    25 1   
    46    24    26 1   
@<TRIPOS>SUBSTRUCTURE
     1 CF4         1 TEMP              0 ****  ****    0 ROOT
