@<TRIPOS>MOLECULE
CF5
   39    41     1     0     0
SMALL
bcc


@<TRIPOS>ATOM
      1 O1P          0.0000     0.0000     0.0000 o          1 CF5      -0.760167
      2 P            1.4800     0.0000     0.0000 p5         1 CF5       0.662900
      3 O3P          2.0170     0.0000     1.5180 o          1 CF5      -0.760167
      4 O2P          2.0170     1.3150    -0.7580 o          1 CF5      -0.760167
      5 O5S          2.0180    -1.3140    -0.7590 os         1 CF5      -0.443200
      6 C5S          1.4160    -2.4380    -0.1140 c3         1 CF5       0.230400
      7 C4S          1.8870    -3.7270    -0.7920 c3         1 CF5       0.146100
      8 C3S          1.2120    -4.9560    -0.1430 c3         1 CF5       0.124100
      9 O3S          0.0920    -5.3810    -0.9210 oh         1 CF5      -0.564800
     10 O4S          3.3000    -3.9220    -0.5710 os         1 CF5      -0.353600
     11 C1S          3.5290    -5.3310    -0.7940 c3         1 CF5       0.118800
     12 C2S          2.3180    -6.0370    -0.1470 c3         1 CF5       0.116100
     13 O2S          1.9120    -7.1660    -0.9250 oh         1 CF5      -0.555800
     14 N3           4.7730    -5.7550    -0.1470 na         1 CF5       0.302100
     15 C2           5.3970    -5.1310     0.8840 cc         1 CF5       0.284400
     16 C10          5.5320    -6.8680    -0.4730 cc         1 CF5      -0.186200
     17 N4           5.2000    -7.7160    -1.4730 ne         1 CF5      -0.482100
     18 C5           5.8190    -8.7480    -1.8970 c2         1 CF5       0.462100
     19 N6           6.9620    -9.2590    -1.3960 nu         1 CF5      -0.538200
     20 C7           8.0510    -8.4620    -0.8670 c3         1 CF5       0.145800
     21 C8           7.6990    -7.8750     0.4860 c3         1 CF5       0.172800
     22 C9           6.5800    -6.8770     0.3830 cd         1 CF5       0.222600
     23 N1           6.4680    -5.8030     1.1920 nd         1 CF5      -0.633000
     24 O8           8.8520    -7.2280     1.0270 oh         1 CF5      -0.560800
     25 H5S1         0.3380    -2.3640    -0.1900 h1         1 CF5       0.010700
     26 H5S2         1.7040    -2.4530     0.9300 h1         1 CF5       0.010700
     27 H4S          1.6740    -3.7000    -1.8540 h1         1 CF5       0.032700
     28 H3S          0.9110    -4.7280     0.8730 h1         1 CF5       0.023700
     29 H1          -0.6680    -5.4520    -0.3670 ho         1 CF5       0.374000
     30 H1S          3.5600    -5.5410    -1.8570 h2         1 CF5       0.058700
     31 H2S          2.5550    -6.3360     0.8670 h1         1 CF5       0.002700
     32 H3           1.6120    -7.8520    -0.3520 ho         1 CF5       0.369000
     33 H2           5.0600    -4.2230     1.3690 h5         1 CF5       0.059100
     34 H5           5.3830    -9.2650    -2.7430 h5         1 CF5      -0.023200
     35 HN6          7.0660   -10.2550    -1.3900 hn         1 CF5       0.271800
     36 H71          8.9040    -9.1160    -0.7330 h1         1 CF5       0.027200
     37 H72          8.2210    -7.6390    -1.5510 h1         1 CF5       0.027200
     38 H8           7.3950    -8.6770     1.1480 h1         1 CF5      -0.010300
     39 HO8          9.1090    -7.6580     1.8250 ho         1 CF5       0.376000
@<TRIPOS>BOND
     1     1     2 1   
     2     2     3 1   
     3     2     4 1   
     4     2     5 1   
     5     5     6 1   
     6     6     7 1   
     7     6    25 1   
     8     6    26 1   
     9     7     8 1   
    10     7    10 1   
    11     7    27 1   
    12     8     9 1   
    13     8    12 1   
    14     8    28 1   
    15     9    29 1   
    16    10    11 1   
    17    11    12 1   
    18    11    14 1   
    19    11    30 1   
    20    12    13 1   
    21    12    31 1   
    22    13    32 1   
    23    14    15 1   
    24    14    16 1   
    25    15    23 2   
    26    15    33 1   
    27    16    17 1   
    28    16    22 2   
    29    17    18 2   
    30    18    19 1   
    31    18    34 1   
    32    19    20 1   
    33    19    35 1   
    34    20    21 1   
    35    20    36 1   
    36    20    37 1   
    37    21    22 1   
    38    21    24 1   
    39    21    38 1   
    40    22    23 1   
    41    24    39 1   
@<TRIPOS>SUBSTRUCTURE
     1 CF5         1 TEMP              0 ****  ****    0 ROOT
