@<TRIPOS>MOLECULE
molecule
   69    73     1     0     0
SMALL
bcc


@<TRIPOS>ATOM
      1 C5           0.0000     0.0000     0.0000 ca         1 CF7       0.089600
      2 C6           1.3870     0.0000     0.0000 ca         1 CF7      -0.176000
      3 C7           2.0740     0.0000     1.1970 ca         1 CF7      -0.072000
      4 C8           1.3870     0.0000     2.4080 ca         1 CF7       0.022600
      5 C10          3.3270    -0.5560     3.6730 c          1 CF7       0.794100
      6 N12          3.9590    -0.6690     4.8570 n          1 CF7      -0.510800
      7 C13          3.2860    -0.3050     6.1130 c3         1 CF7       0.064000
      8 C17          5.3420    -1.1690     4.9320 c3         1 CF7       0.101000
      9 C21          9.5840    -1.6430     5.2270 ca         1 CF7       0.092600
     10 C22         10.7540    -1.1950     4.6210 ca         1 CF7      -0.168000
     11 C24         11.9680    -2.9920     5.6490 ca         1 CF7      -0.028000
     12 C1          -0.3140    -1.3120    -3.2100 c3         1 CF7      -0.109600
     13 C3          -0.4970     1.1770    -3.3110 c3         1 CF7      -0.109600
     14 N4          -0.7270    -0.0070    -1.1840 n          1 CF7      -0.359000
     15 N9           2.1010     0.0020     3.6140 ns         1 CF7      -0.487100
     16 O11          3.8620    -0.9550     2.6560 o          1 CF7      -0.653100
     17 C14          4.2040     0.6360     6.8990 c3         1 CF7       0.122400
     18 O15          5.4980     0.0400     7.0210 os         1 CF7      -0.380600
     19 C16          6.1630    -0.1890     5.7780 c3         1 CF7       0.053100
     20 C18          7.5320    -0.7610     6.0390 c          1 CF7       0.660100
     21 O19          7.8690    -1.0400     7.1700 o          1 CF7      -0.540100
     22 N20          8.3840    -0.9630     5.0130 ns         1 CF7      -0.485100
     23 C23         11.9390    -1.8620     4.8270 ca         1 CF7      -0.063000
     24 C25         13.2000    -3.6890     5.8670 cg         1 CF7       0.238800
     25 N26         14.1880    -4.2260     6.0360 n1         1 CF7      -0.348800
     26 C27         10.7900    -3.4480     6.2490 ca         1 CF7       0.078400
     27 Cl          10.8190    -4.8510     7.2710 cl         1 CF7      -0.074400
     28 C29          9.6070    -2.7700     6.0410 ca         1 CF7      -0.127000
     29 C30          0.0030     0.0010     2.4250 ca         1 CF7      -0.068000
     30 C31         -0.6970    -0.0000     1.2210 ca         1 CF7      -0.194600
     31 C32         -2.1710    -0.0010     1.1820 c          1 CF7       0.718100
     32 O33         -2.8210    -0.0000     2.2100 o          1 CF7      -0.614500
     33 N34         -2.7800    -0.0010    -0.0230 n          1 CF7      -0.469400
     34 C35         -4.2440    -0.0020    -0.0880 c3         1 CF7       0.144000
     35 C36         -4.7530     1.4400    -0.1120 cx         1 CF7      -0.155700
     36 C37         -5.5020     1.9040    -1.3630 cx         1 CF7      -0.130900
     37 C38         -6.2670     1.6550    -0.0610 cx         1 CF7      -0.130900
     38 C39         -2.0710    -0.0120    -1.1620 c          1 CF7       0.818500
     39 O40         -2.6690    -0.0180    -2.2200 o          1 CF7      -0.659500
     40 H1           1.9290    -0.0000    -0.9380 ha         1 CF7       0.148000
     41 H2           3.1570     0.0090     1.1940 ha         1 CF7       0.186000
     42 H3           3.0960    -1.1980     6.6970 h1         1 CF7       0.059700
     43 H4           2.3520     0.1980     5.8930 h1         1 CF7       0.059700
     44 H5           5.7610    -1.2290     3.9360 h1         1 CF7       0.078200
     45 H6           5.3500    -2.1470     5.3980 h1         1 CF7       0.078200
     46 H7          10.7310    -0.3180     3.9840 ha         1 CF7       0.141000
     47 H8          -0.4180    -2.1190    -2.4940 hc         1 CF7       0.051867
     48 H9          -1.2330    -1.2100    -3.7740 hc         1 CF7       0.051867
     49 H10          0.5020    -1.5320    -3.8860 hc         1 CF7       0.051867
     50 H11          1.0440     0.0780    -2.2940 h1         1 CF7       0.066700
     51 H12         -0.6680     2.0320    -2.6690 hc         1 CF7       0.051867
     52 H13          0.2330     1.4340    -4.0690 hc         1 CF7       0.051867
     53 H14         -1.4270     0.8920    -3.7890 hc         1 CF7       0.051867
     54 H15          1.7090     0.4350     4.4260 hn         1 CF7       0.326500
     55 H16          3.7900     0.8050     7.8850 h1         1 CF7       0.061200
     56 H17          4.2900     1.5790     6.3710 h1         1 CF7       0.061200
     57 H18          6.2560     0.7500     5.2460 h1         1 CF7       0.057700
     58 H19          8.2100    -0.5270     4.1290 hn         1 CF7       0.330500
     59 H20         12.8480    -1.5110     4.3540 ha         1 CF7       0.151000
     60 H21          8.6940    -3.1180     6.5080 ha         1 CF7       0.171000
     61 H22         -0.5310     0.0010     3.3670 ha         1 CF7       0.157000
     62 H23         -4.6440    -0.5120     0.7800 h1         1 CF7       0.079700
     63 H24         -4.5650    -0.5130    -0.9880 h1         1 CF7       0.079700
     64 H25         -4.1700     2.2100     0.3790 hc         1 CF7       0.088700
     65 H26         -5.6350     1.1540    -2.1330 hc         1 CF7       0.075950
     66 H27         -5.3640     2.9440    -1.6320 hc         1 CF7       0.075950
     67 H28         -6.8670     0.7530    -0.0370 hc         1 CF7       0.075950
     68 H29         -6.5960     2.5420     0.4650 hc         1 CF7       0.075950
     69 C2          -0.0220    -0.0070    -2.4670 c3         1 CF7       0.119700
@<TRIPOS>BOND
     1    25    24 3
     2    27    26 1
     3    24    11 1
     4    26    11 ar
     5    26    28 ar
     6    11    23 ar
     7    21    20 2
     8    28     9 ar
     9    23    10 ar
    10     9    10 ar
    11     9    22 1
    12    20    22 1
    13    20    19 1
    14    19    18 1
    15    19     8 1
    16    18    17 1
    17    36    35 1
    18    36    37 1
    19    13    69 1
    20    17     7 1
    21    35    37 1
    22    35    34 1
    23     8     6 1
    24    69    14 1
    25    69    12 1
    26     2     3 ar
    27     2     1 ar
    28    14     1 1
    29    14    38 1
    30    39    38 2
    31     3     4 ar
    32     1    30 ar
    33    38    33 1
    34    30    29 ar
    35    30    31 1
    36    33    31 1
    37    33    34 1
    38    15     4 1
    39    15     5 1
    40     6     7 1
    41     6     5 1
    42     4    29 ar
    43    31    32 2
    44     5    16 2
    45     2    40 1
    46     3    41 1
    47     7    42 1
    48     7    43 1
    49     8    44 1
    50     8    45 1
    51    10    46 1
    52    12    47 1
    53    12    48 1
    54    12    49 1
    55    69    50 1
    56    13    51 1
    57    13    52 1
    58    13    53 1
    59    15    54 1
    60    17    55 1
    61    17    56 1
    62    19    57 1
    63    22    58 1
    64    23    59 1
    65    28    60 1
    66    29    61 1
    67    34    62 1
    68    34    63 1
    69    35    64 1
    70    36    65 1
    71    36    66 1
    72    37    67 1
    73    37    68 1
@<TRIPOS>SUBSTRUCTURE
     1 CF7         1 TEMP              0 ****  ****    0 ROOT
