@<TRIPOS>MOLECULE
molecule
   38    40     1     0     0
SMALL
bcc


@<TRIPOS>ATOM
      1 C4           0.0000     0.0000     0.0000 ca         1 CF8      -0.102000
      2 C5           1.3790     0.0000     0.0000 ca         1 CF8      -0.140000
      3 C6           2.0740     0.0000     1.1970 ca         1 CF8      -0.150000
      4 C7           1.3930     0.0010     2.4020 ca         1 CF8      -0.133000
      5 C8           0.0140     0.0020     2.4190 ca         1 CF8      -0.082300
      6 C9          -0.7250     0.0030     3.7320 c3         1 CF8       0.012200
      7 C10         -1.0710    -1.4130     4.1150 ca         1 CF8      -0.056300
      8 C11         -0.1490    -2.1750     4.7660 ca         1 CF8      -0.129000
      9 C12         -0.4680    -3.4950     5.1250 ca         1 CF8      -0.035000
     10 C13          0.4570    -4.3120     5.7980 ca         1 CF8      -0.118000
     11 C14          0.1130    -5.5860     6.1300 ca         1 CF8      -0.140000
     12 C15         -1.1450    -6.0960     5.8130 ca         1 CF8      -0.145000
     13 C           -2.8490    -0.8010     0.3710 ce         1 CF8       0.046400
     14 O           -4.9870    -1.4680    -0.6000 o          1 CF8      -0.828800
     15 C1          -4.3070    -0.6700     0.2480 c          1 CF8       0.871800
     16 C16         -2.0660    -5.3350     5.1620 ca         1 CF8      -0.108000
     17 C17         -1.7470    -4.0140     4.8020 ca         1 CF8      -0.038000
     18 C18         -2.6710    -3.1970     4.1290 ca         1 CF8      -0.114000
     19 C19         -2.3290    -1.9210     3.8030 ca         1 CF8      -0.097000
     20 C3          -0.6960     0.0010     1.2130 ca         1 CF8      -0.015800
     21 O1          -4.9010     0.1590     0.9100 o          1 CF8      -0.828800
     22 S           -1.9880    -2.0020    -0.5890 sh         1 CF8      -0.408400
     23 H1          -0.5430    -0.0000    -0.9370 ha         1 CF8       0.155000
     24 H2           1.9190    -0.0010    -0.9390 ha         1 CF8       0.115000
     25 H3           3.1570    -0.0000     1.1900 ha         1 CF8       0.109000
     26 H4           1.9450     0.0010     3.3340 ha         1 CF8       0.112000
     27 H5          -1.6340     0.5830     3.6330 hc         1 CF8       0.052200
     28 H6          -0.0980     0.4410     4.4990 hc         1 CF8       0.052200
     29 H7           0.7780    -1.7300     5.1070 ha         1 CF8       0.123000
     30 H8           1.4380    -3.9290     6.0510 ha         1 CF8       0.122000
     31 H9           0.8280    -6.2130     6.6490 ha         1 CF8       0.114000
     32 H10         -1.3930    -7.1140     6.0890 ha         1 CF8       0.116000
     33 H12         -3.0400    -5.7450     4.9220 ha         1 CF8       0.130000
     34 H13         -3.6540    -3.5780     3.8800 ha         1 CF8       0.141000
     35 H14         -3.0510    -1.2880     3.3000 ha         1 CF8       0.166000
     36 H15         -2.6990     0.7400     1.8100 ha         1 CF8       0.162000
     37 H16         -2.7340    -2.3530    -1.6300 hs         1 CF8       0.233800
     38 C2          -2.1670     0.0020     1.2220 cf         1 CF8      -0.164200
@<TRIPOS>BOND
     1     1     2 ar
     2     1    20 ar
     3     2     3 ar
     4    21    15 1
     5     3     4 ar
     6    20    38 1
     7    20     5 ar
     8    38    13 2
     9    15    13 1
    10    15    14 1
    11    16    12 ar
    12    16    17 ar
    13    18    17 ar
    14    18    19 ar
    15    13    22 1
    16     4     5 ar
    17     5     6 1
    18    12    11 ar
    19    17     9 ar
    20    19     7 ar
    21    11    10 ar
    22     9     8 ar
    23     9    10 ar
    24     7     8 ar
    25     7     6 1
    26     1    23 1
    27     2    24 1
    28     3    25 1
    29     4    26 1
    30     6    27 1
    31     6    28 1
    32     8    29 1
    33    10    30 1
    34    11    31 1
    35    12    32 1
    36    16    33 1
    37    18    34 1
    38    19    35 1
    39    38    36 1
    40    22    37 1
@<TRIPOS>SUBSTRUCTURE
     1 CF8         1 TEMP              0 ****  ****    0 ROOT
