@<TRIPOS>MOLECULE
CF9
   34    37     1     0     0
SMALL
bcc


@<TRIPOS>ATOM
      1 O50          0.0000     0.0000     0.0000 o          1 CF9      -0.442500
      2 N48          1.2180     0.0000     0.0000 no         1 CF9       1.041200
      3 O52          1.8280     0.0000     1.0540 o          1 CF9      -0.442500
      4 C41          1.9570    -0.0070    -1.2830 ca         1 CF9      -0.421200
      5 C39          1.2620    -0.0120    -2.4780 ca         1 CF9      -0.026000
      6 C37          1.9440    -0.0180    -3.6770 ca         1 CF9      -0.065000
      7 C43          3.3410    -0.0010    -1.2800 ca         1 CF9      -0.026000
      8 C45          4.0360    -0.0010    -2.4710 ca         1 CF9      -0.065000
      9 C35          3.3410    -0.0180    -3.6820 ca         1 CF9      -0.095600
     10 C31          4.0780    -0.0180    -4.9620 c          1 CF9       0.698700
     11 O33          5.2930    -0.0030    -4.9630 o          1 CF9      -0.550000
     12 O29          3.4040    -0.0350    -6.1280 os         1 CF9      -0.311200
     13 C13          4.1380     0.0730    -7.2650 ca         1 CF9       0.111100
     14 C3           4.7050    -1.0660    -7.8720 ca         1 CF9      -0.015000
     15 C4           4.5930    -2.3850    -7.4070 ca         1 CF9      -0.035000
     16 C5           5.2030    -3.3920    -8.1090 ca         1 CF9      -0.118000
     17 C6           5.9370    -3.1720    -9.2730 ca         1 CF9       0.033000
     18 C1           6.0710    -1.8850    -9.7650 ca         1 CF9      -0.295500
     19 C14          4.3440     1.3030    -7.8640 ca         1 CF9      -0.080000
     20 C15          5.0870     1.4650    -9.0320 ca         1 CF9      -0.140300
     21 C16          5.6610     0.3680    -9.6480 ca         1 CF9       0.389900
     22 C2           5.4420    -0.8600    -9.0390 ca         1 CF9      -0.187300
     23 O24          6.4180     0.1440   -10.7480 os         1 CF9      -0.475600
     24 C22          6.7020    -1.1770   -10.8820 c          1 CF9       0.715800
     25 O27          7.3610    -1.6820   -11.7720 o          1 CF9      -0.309000
     26 H1           0.1780    -0.0120    -2.4730 ha         1 CF9       0.138500
     27 H2           1.3970    -0.0270    -4.6130 ha         1 CF9       0.133500
     28 H3           3.8790     0.0130    -0.3400 ha         1 CF9       0.138500
     29 H4           5.1190     0.0010    -2.4670 ha         1 CF9       0.133500
     30 H5           4.0320    -2.6050    -6.5060 ha         1 CF9       0.110000
     31 H6           5.1110    -4.4070    -7.7420 ha         1 CF9       0.108000
     32 H7           6.4000    -4.0030    -9.7900 ha         1 CF9       0.113000
     33 H8           3.9080     2.1820    -7.4030 ha         1 CF9       0.113000
     34 H9           5.2170     2.4530    -9.4570 ha         1 CF9       0.117000
@<TRIPOS>BOND
     1     1     2 1   
     2     2     3 1   
     3     2     4 1   
     4     4     5 ar  
     5     4     7 ar  
     6     5     6 ar  
     7     5    26 1   
     8     6     9 ar  
     9     6    27 1   
    10     7     8 ar  
    11     7    28 1   
    12     8     9 ar  
    13     8    29 1   
    14     9    10 1   
    15    10    11 2   
    16    10    12 1   
    17    12    13 1   
    18    13    14 ar  
    19    13    19 ar  
    20    14    15 ar  
    21    14    22 ar  
    22    15    16 ar  
    23    15    30 1   
    24    16    17 ar  
    25    16    31 1   
    26    17    18 ar  
    27    17    32 1   
    28    18    22 ar  
    29    18    24 1   
    30    19    20 ar  
    31    19    33 1   
    32    20    21 ar  
    33    20    34 1   
    34    21    22 ar  
    35    21    23 1   
    36    23    24 1   
    37    24    25 2   
@<TRIPOS>SUBSTRUCTURE
     1 CF9         1 TEMP              0 ****  ****    0 ROOT
