@<TRIPOS>MOLECULE
molecule
   18    18     1     0     0
SMALL
bcc


@<TRIPOS>ATOM
      1 C1           0.0000     0.0000     0.0000 c          1 CFA       0.892600
      2 C2           1.5070     0.0000     0.0000 c3         1 CFA      -0.012600
      3 C1'          3.3420    -0.0000    -1.2820 ca         1 CFA       0.155100
      4 C2'          4.0910    -0.0040    -2.4500 ca         1 CFA      -0.013600
      5 C3'          5.4720    -0.0000    -2.3820 ca         1 CFA      -0.092000
      6 C4'          6.1050    -0.0010    -1.1530 ca         1 CFA      -0.026600
      7 C5'          5.3580    -0.0010     0.0120 ca         1 CFA      -0.086000
      8 Cl3          3.2970    -0.0030    -3.9930 cl         1 CFA      -0.094400
      9 C6'          3.9780    -0.0000    -0.0510 ca         1 CFA      -0.217000
     10 O1          -0.6720     0.0000     1.1620 o          1 CFA      -0.823800
     11 O2          -0.6040     0.0000    -1.0460 o          1 CFA      -0.823800
     12 O1'          1.9830    -0.0000    -1.3460 os         1 CFA      -0.234900
     13 Cl4          7.8390    -0.0010    -1.0700 cl         1 CFA      -0.142400
     14 H2C1         1.8670     0.8850     0.5110 h1         1 CFA       0.034700
     15 H2C2         1.8670    -0.8840     0.5110 h1         1 CFA       0.034700
     16 H3'          6.0580    -0.0020    -3.2930 ha         1 CFA       0.143000
     17 H5'          5.8550    -0.0010     0.9750 ha         1 CFA       0.135000
     18 H6'          3.3930     0.0020     0.8610 ha         1 CFA       0.172000
@<TRIPOS>BOND
     1     1     2 1
     2     1    10 1
     3     1    11 1
     4     2    12 1
     5     2    14 1
     6     2    15 1
     7     3     4 ar
     8     3     9 ar
     9     3    12 1
    10     4     5 ar
    11     4     8 1
    12     5     6 ar
    13     5    16 1
    14     6     7 ar
    15     6    13 1
    16     7     9 ar
    17     7    17 1
    18     9    18 1
@<TRIPOS>SUBSTRUCTURE
     1 CFA         1 TEMP              0 ****  ****    0 ROOT
