@<TRIPOS>MOLECULE
CFA
   18    18     1     0     0
SMALL
bcc


@<TRIPOS>ATOM
      1 C1         -0.1710    0.0840   -0.1800 c         1 CFA      0.929600
      2 C2          1.3630    0.2060    0.0850 c3        1 CFA     -0.016600
      3 C1'         3.3930   -0.1030   -1.1160 ca        1 CFA      0.180100
      4 C2'         4.0700   -0.4480   -2.3140 ca        1 CFA     -0.029600
      5 C3'         5.4630   -0.4240   -2.3630 ca        1 CFA     -0.093000
      6 C4'         6.1930   -0.0590   -1.2300 ca        1 CFA     -0.043600
      7 C5'         5.5410    0.2830   -0.0440 ca        1 CFA     -0.086000
      8 CL3         3.2270   -0.8980   -3.7190 cl        1 CFA     -0.080400
      9 C6'         4.1530    0.2610    0.0120 ca        1 CFA     -0.214000
     10 O1         -0.7060   -1.0210    0.0940 o         1 CFA     -0.813800
     11 O2         -0.7620    1.1200   -0.5770 o         1 CFA     -0.813800
     12 O1'         2.0310   -0.1460   -1.1350 os        1 CFA     -0.265900
     13 CL4         7.8990   -0.0330   -1.3000 cl        1 CFA     -0.133400
     14 H2C1        1.6220    1.2600    0.3580 h1        1 CFA      0.024200
     15 H2C2        1.6700   -0.5030    0.8940 h1        1 CFA      0.024200
     16 H3'         5.9840   -0.6920   -3.2950 ha        1 CFA      0.145000
     17 H5'         6.1200    0.5700    0.8460 ha        1 CFA      0.134000
     18 H6'         3.6460    0.5320    0.9500 ha        1 CFA      0.153000
@<TRIPOS>BOND
     1    1    2 1   
     2    1   10 1   
     3    1   11 1   
     4    2   12 1   
     5    2   14 1   
     6    2   15 1   
     7    3    4 ar  
     8    3    9 ar  
     9    3   12 1   
    10    4    5 ar  
    11    4    8 1   
    12    5    6 ar  
    13    5   16 1   
    14    6    7 ar  
    15    6   13 1   
    16    7    9 ar  
    17    7   17 1   
    18    9   18 1   
@<TRIPOS>SUBSTRUCTURE
     1 CFA         1 TEMP              0 ****  ****    0 ROOT
