@<TRIPOS>MOLECULE
CFB
   31    33     1     0     0
SMALL
bcc


@<TRIPOS>ATOM
      1 O5'          0.0000     0.0000     0.0000 oh         1 CFB      -0.578800
      2 C5'          1.4300     0.0000     0.0000 c3         1 CFB       0.225400
      3 C4'          1.9400     0.0000     1.4420 c3         1 CFB       0.165100
      4 O4'          1.5980    -1.2410     2.0960 os         1 CFB      -0.378600
      5 C3'          3.4840     0.0470     1.4680 c3         1 CFB       0.130100
      6 O3'          3.9410     1.3840     1.6860 oh         1 CFB      -0.568800
      7 C2'          3.8680    -0.8590     2.6610 c3         1 CFB       0.104600
      8 F            4.6410    -1.9410     2.2270 f          1 CFB      -0.214300
      9 C1'          2.5100    -1.3480     3.2110 c3         1 CFB       0.140800
     10 N9           2.6120    -2.7400     3.6560 na         1 CFB       0.212000
     11 C8           2.3200    -3.8470     2.9150 cc         1 CFB       0.269700
     12 N7           2.5230    -4.9210     3.6220 nd         1 CFB      -0.494100
     13 C5           2.9600    -4.5720     4.8570 ca         1 CFB      -0.235200
     14 C4           3.0170    -3.1690     4.8940 ca         1 CFB       0.273800
     15 N3           3.4170    -2.5680     6.0110 nb         1 CFB      -0.666000
     16 C2           3.7520    -3.2760     7.0710 ca         1 CFB       0.676000
     17 Cl           4.2670    -2.4430     8.5040 cl         1 CFB      -0.062000
     18 N1           3.7090    -4.5970     7.0830 nb         1 CFB      -0.720000
     19 C6           3.3220    -5.2830     6.0130 ca         1 CFB       0.599200
     20 N6           3.2800    -6.6660     6.0350 nv         1 CFB      -0.481500
     21 H5'         -0.3140     0.3170    -0.8300 ho         1 CFB       0.393000
     22 H5'1         1.7910     0.8850    -0.5110 h1         1 CFB      -0.002300
     23 H5'2         1.7910    -0.8840    -0.5110 h1         1 CFB      -0.002300
     24 H4'          1.5300     0.8380     1.9920 h1         1 CFB       0.048700
     25 H3'          3.8890    -0.3520     0.5460 h1         1 CFB       0.034700
     26 H1           4.7460     1.5220     1.2160 ho         1 CFB       0.401000
     27 H2'          4.3960    -0.2860     3.4150 h1         1 CFB       0.067700
     28 H1'          2.1840    -0.7100     4.0230 h2         1 CFB       0.063700
     29 H8           1.9720    -3.8340     1.8890 h5         1 CFB       0.043800
     30 HN61         3.2340    -7.1790     5.1770 hn         1 CFB       0.277800
     31 HN62         3.3250    -7.1540     6.9080 hn         1 CFB       0.277800
@<TRIPOS>BOND
     1     1     2 1   
     2     1    21 1   
     3     2     3 1   
     4     2    22 1   
     5     2    23 1   
     6     3     4 1   
     7     3     5 1   
     8     3    24 1   
     9     4     9 1   
    10     5     6 1   
    11     5     7 1   
    12     5    25 1   
    13     6    26 1   
    14     7     8 1   
    15     7     9 1   
    16     7    27 1   
    17     9    10 1   
    18     9    28 1   
    19    10    11 1   
    20    10    14 1   
    21    11    12 2   
    22    11    29 1   
    23    12    13 1   
    24    13    14 ar  
    25    13    19 ar  
    26    14    15 ar  
    27    15    16 ar  
    28    16    17 1   
    29    16    18 ar  
    30    18    19 ar  
    31    19    20 1   
    32    20    30 1   
    33    20    31 1   
@<TRIPOS>SUBSTRUCTURE
     1 CFB         1 TEMP              0 ****  ****    0 ROOT
