@<TRIPOS>MOLECULE
CFD
   26    25     1     0     0
SMALL
bcc


@<TRIPOS>ATOM
      1 N            0.0000     0.0000     0.0000 nz         1 CFD       0.053400
      2 CA           1.4690     0.0000     0.0000 c3         1 CFD       0.005700
      3 C            2.8950     2.4850    -3.7580 c          1 CFD       0.650900
      4 O            2.2750     3.4700    -4.0830 o          1 CFD      -0.519100
      5 CB2          1.9790     0.0000     1.4420 c3         1 CFD      -0.001100
      6 CB1          1.9710     1.2320    -0.7100 c2         1 CFD      -0.265400
      7 CG1          2.8020     1.1160    -1.7150 c2         1 CFD      -0.018200
      8 CG2          1.5150     2.5970    -0.2630 c3         1 CFD       0.055100
      9 CD           3.4010     2.3470    -2.3440 c3         1 CFD      -0.175500
     10 CE           4.9260     2.2230    -2.3590 c3         1 CFD       0.026900
     11 HN          -0.3340     0.2930     0.8970 hn         1 CFD       0.229800
     12 HA           1.8310    -0.8840    -0.5110 hx         1 CFD       0.086700
     13 H1G1         3.1290     0.1340    -2.0350 ha         1 CFD       0.113000
     14 HD           3.1150     3.2210    -1.7710 hc         1 CFD       0.071700
     15 HNA         -0.3340     0.6310    -0.7020 hn         1 CFD       0.229800
     16 HB2          1.2080     0.3860     2.0980 hc         1 CFD       0.039367
     17 HB2A         2.2300    -1.0120     1.7360 hc         1 CFD       0.039367
     18 HB2B         2.8600     0.6260     1.5140 hc         1 CFD       0.039367
     19 HG2          2.3690     3.2630    -0.2070 hc         1 CFD       0.026367
     20 HG2A         0.7980     2.9890    -0.9730 hc         1 CFD       0.026367
     21 HG2B         1.0520     2.5210     0.7140 hc         1 CFD       0.026367
     22 HE           5.3030     2.5160    -3.3310 hc         1 CFD       0.017367
     23 HEA          5.2070     1.1970    -2.1570 hc         1 CFD       0.017367
     24 HEB          5.3480     2.8700    -1.5990 hc         1 CFD       0.017367
     25 HN3         -0.3340    -0.9170    -0.2220 hn         1 CFD       0.229800
     26 H            3.1450     1.7340    -4.4970 h4         1 CFD      -0.022800
@<TRIPOS>BOND
     1     1     2 1   
     2     1    11 1   
     3     1    15 1   
     4     1    25 1   
     5     2     5 1   
     6     2     6 1   
     7     2    12 1   
     8     3     4 2   
     9     3     9 1   
    10     3    26 1   
    11     5    16 1   
    12     5    17 1   
    13     5    18 1   
    14     6     7 2   
    15     6     8 1   
    16     7     9 1   
    17     7    13 1   
    18     8    19 1   
    19     8    20 1   
    20     8    21 1   
    21     9    10 1   
    22     9    14 1   
    23    10    22 1   
    24    10    23 1   
    25    10    24 1   
@<TRIPOS>SUBSTRUCTURE
     1 CFD         1 TEMP              0 ****  ****    0 ROOT
