@<TRIPOS>MOLECULE
molecule
   26    25     1     0     0
SMALL
bcc


@<TRIPOS>ATOM
      1 N            0.0000     0.0000     0.0000 nz         1 CFD      -0.812600
      2 CA           1.4690     0.0000     0.0000 c3         1 CFD       0.184700
      3 C            2.8950     2.4850    -3.7580 c          1 CFD       0.562900
      4 O            2.2750     3.4700    -4.0830 o          1 CFD      -0.475100
      5 CB2          1.9790     0.0000     1.4420 c3         1 CFD      -0.112100
      6 CB1          1.9710     1.2320    -0.7100 c2         1 CFD      -0.282400
      7 CG1          2.8020     1.1160    -1.7150 c2         1 CFD      -0.269200
      8 CG2          1.5150     2.5970    -0.2630 c3         1 CFD      -0.133900
      9 CD           3.4010     2.3470    -2.3440 c3         1 CFD      -0.122500
     10 CE           4.9260     2.2230    -2.3590 c3         1 CFD      -0.059100
     11 HN          -0.3330     0.4260    -0.8420 hn         1 CFD       0.452467
     12 HA           1.8310    -0.8840    -0.5110 hx         1 CFD       0.135700
     13 H1G1         2.4680     2.1450    -1.7540 ha         1 CFD       0.296000
     14 HD           3.1150     3.2210    -1.7710 hc         1 CFD       0.050700
     15 HNA         -0.3340    -0.9420     0.0520 hn         1 CFD       0.452467
     16 HB2          2.9160     0.5420     1.4940 hc         1 CFD       0.074033
     17 HB2A         1.2490     0.4790     2.0830 hc         1 CFD       0.074033
     18 HB2B         2.1340    -1.0210     1.7700 hc         1 CFD       0.074033
     19 HG2          0.9480     2.5060     0.6550 hc         1 CFD       0.062700
     20 HG2A         2.3800     3.2280    -0.0920 hc         1 CFD       0.062700
     21 HG2B         0.8920     3.0390    -1.0310 hc         1 CFD       0.062700
     22 HE           5.2060     1.1890    -2.1990 hc         1 CFD       0.071700
     23 HEA          5.3450     2.8370    -1.5710 hc         1 CFD       0.071700
     24 HEB          5.3060     2.5570    -3.3170 hc         1 CFD       0.071700
     25 HN3         -0.3340     0.5220     0.7860 hn         1 CFD       0.452467
     26 H            3.0770     1.6970    -4.4780 h4         1 CFD       0.054200
@<TRIPOS>BOND
     1     1     2 1
     2     1    11 1
     3     1    15 1
     4    12     2 1
     5     2     5 1
     6     2     6 1
     7     3     9 1
     8     3     4 2
     9     3    26 1
    10     5    16 1
    11     5    17 1
    12     5    18 1
    13     7     6 2
    14     6     8 1
    15    13     7 1
    16     7     9 1
    17     8    19 1
    18     8    20 1
    19     8    21 1
    20    10     9 1
    21     9    14 1
    22    10    22 1
    23    10    23 1
    24    10    24 1
    25    25     1 1
@<TRIPOS>SUBSTRUCTURE
     1 CFD         1 TEMP              0 ****  ****    0 ROOT
