@<TRIPOS>MOLECULE
CFE
   36    38     1     0     0
SMALL
bcc


@<TRIPOS>ATOM
      1 N1           0.0000     0.0000     0.0000 nc         1 CFE      -0.616000
      2 C2           1.3010     0.0000     0.0000 cd         1 CFE       0.246400
      3 N3           1.7370     0.0000     1.2850 na         1 CFE       0.265100
      4 N4           0.6850    -0.0180     3.4490 nf         1 CFE      -0.546100
      5 C5          -0.2540    -0.0590     4.3090 c2         1 CFE       0.522100
      6 N6          -1.5780    -0.0630     4.0490 nu         1 CFE      -0.504200
      7 C7          -2.1860    -0.7310     2.9160 c3         1 CFE       0.151800
      8 C8          -1.9160     0.0140     1.6220 c3         1 CFE       0.164800
      9 O8          -2.3500     1.3680     1.7660 oh         1 CFE      -0.583800
     10 C9          -0.4560     0.0010     1.2680 cc         1 CFE       0.220600
     11 C10          0.6140    -0.0060     2.0980 cd         1 CFE      -0.117200
     12 C1S          3.1320     0.0030     1.7300 c3         1 CFE       0.151800
     13 C2S          3.6350    -1.4440     1.9600 c3         1 CFE       0.130100
     14 O2S          3.3190    -1.8890     3.2810 oh         1 CFE      -0.534800
     15 C3S          5.1660    -1.2890     1.7820 c3         1 CFE       0.126100
     16 O3S          5.8070    -1.1690     3.0530 oh         1 CFE      -0.548800
     17 C4S          5.3200     0.0120     0.9700 c3         1 CFE       0.152100
     18 O4S          3.9980     0.5010     0.6860 os         1 CFE      -0.383600
     19 C5S          6.0620    -0.2760    -0.3370 c3         1 CFE       0.219400
     20 O5S          6.3040     0.9520    -1.0270 oh         1 CFE      -0.576800
     21 H2           1.9320     0.0000    -0.8810 h5         1 CFE       0.031100
     22 H5           0.0390    -0.0960     5.3510 h5         1 CFE      -0.016200
     23 HN6         -2.1800     0.4290     4.6800 hn         1 CFE       0.289800
     24 H7          -3.2580    -0.7410     3.0740 h1         1 CFE       0.026700
     25 H7A         -1.7380    -1.7140     2.8320 h1         1 CFE       0.026700
     26 H8          -2.4750    -0.4570     0.8230 h1         1 CFE       0.013700
     27 HO8         -3.0170     1.5540     1.1270 ho         1 CFE       0.390000
     28 H1S          3.2490     0.5930     2.6310 h2         1 CFE       0.074700
     29 H2S          3.2290    -2.1140     1.2130 h1         1 CFE       0.020700
     30 HO2S         3.2010    -2.8250     3.2770 ho         1 CFE       0.384000
     31 H3S          5.5660    -2.1290     1.2260 h1         1 CFE       0.009700
     32 HO3S         6.4990    -1.8060     3.1170 ho         1 CFE       0.387000
     33 H4S          5.8640     0.7450     1.5540 h1         1 CFE       0.051700
     34 H5S          5.4590    -0.9270    -0.9590 h1         1 CFE      -0.009300
     35 H5SA         7.0060    -0.7590    -0.1170 h1         1 CFE      -0.009300
     36 HO5S         6.9260     0.8060    -1.7200 ho         1 CFE       0.389000
@<TRIPOS>BOND
     1     1     2 2   
     2     1    10 1   
     3     2     3 1   
     4     2    21 1   
     5     3    11 1   
     6     3    12 1   
     7     4     5 2   
     8     4    11 1   
     9     5     6 1   
    10     5    22 1   
    11     6     7 1   
    12     6    23 1   
    13     7     8 1   
    14     7    24 1   
    15     7    25 1   
    16     8     9 1   
    17     8    10 1   
    18     8    26 1   
    19     9    27 1   
    20    10    11 2   
    21    12    13 1   
    22    12    18 1   
    23    12    28 1   
    24    13    14 1   
    25    13    15 1   
    26    13    29 1   
    27    14    30 1   
    28    15    16 1   
    29    15    17 1   
    30    15    31 1   
    31    16    32 1   
    32    17    18 1   
    33    17    19 1   
    34    17    33 1   
    35    19    20 1   
    36    19    34 1   
    37    19    35 1   
    38    20    36 1   
@<TRIPOS>SUBSTRUCTURE
     1 CFE         1 TEMP              0 ****  ****    0 ROOT
