@<TRIPOS>MOLECULE
CFF
   24    25     1     0     0
SMALL
bcc


@<TRIPOS>ATOM
      1 N1         -0.0610    0.1170   -0.0190 n         1 CFF     -0.483400
      2 C2          1.3580    0.0880   -0.0460 c         1 CFF      0.814500
      3 C10        -0.7230    0.2110   -1.2990 c3        1 CFF      0.080300
      4 C6         -0.8210    0.0590    1.1680 c         1 CFF      0.765100
      5 N3          2.1020   -0.0020    1.1550 n         1 CFF     -0.417300
      6 O11         1.9560    0.1440   -1.1430 o         1 CFF     -0.637500
      7 C12         3.5400   -0.0330    1.1350 c3        1 CFF      0.090300
      8 C4          1.4090   -0.0630    2.3550 cc        1 CFF      0.485200
      9 C5         -0.0230   -0.0340    2.3770 cd        1 CFF     -0.350200
     10 N9          1.9060   -0.1560    3.6650 nc        1 CFF     -0.685000
     11 O13        -2.0660    0.0870    1.1390 o         1 CFF     -0.633500
     12 N7         -0.3960   -0.1100    3.7230 na        1 CFF     -0.148900
     13 C8          0.7930   -0.1810    4.4470 cd        1 CFF      0.443400
     14 C14        -1.7240   -0.1150    4.2440 c3        1 CFF      0.009600
     15 H101       -0.3930    1.1470   -1.8240 h1        1 CFF      0.063367
     16 H102       -0.4420   -0.6720   -1.9330 h1        1 CFF      0.063367
     17 H103       -1.8350    0.2320   -1.1470 h1        1 CFF      0.063367
     18 H121        3.9050    0.0310    0.0750 h1        1 CFF      0.063367
     19 H122        3.9420    0.8340    1.7250 h1        1 CFF      0.063367
     20 H123        3.9010   -0.9890    1.6010 h1        1 CFF      0.063367
     21 H81         0.8130   -0.2500    5.5420 h5        1 CFF      0.071100
     22 H141       -1.8660    0.7620    4.9310 h1        1 CFF      0.071700
     23 H142       -1.9040   -1.0640    4.8170 h1        1 CFF      0.071700
     24 H143       -2.4600   -0.0460    3.3950 h1        1 CFF      0.071700
@<TRIPOS>BOND
     1    1    2 1   
     2    1    3 1   
     3    1    4 1   
     4    2    5 1   
     5    2    6 2   
     6    3   15 1   
     7    3   16 1   
     8    3   17 1   
     9    4    9 1   
    10    4   11 2   
    11    5    7 1   
    12    5    8 1   
    13    7   18 1   
    14    7   19 1   
    15    7   20 1   
    16    8    9 2   
    17    8   10 1   
    18    9   12 1   
    19   10   13 2   
    20   12   13 1   
    21   12   14 1   
    22   13   21 1   
    23   14   22 1   
    24   14   23 1   
    25   14   24 1   
@<TRIPOS>SUBSTRUCTURE
     1 CFF         1 TEMP              0 ****  ****    0 ROOT
