@<TRIPOS>MOLECULE
CFG
   59    61     1     0     0
SMALL
bcc


@<TRIPOS>ATOM
      1 C4           0.0000     0.0000     0.0000 ca         1 CFG      -0.170000
      2 C5           1.3820     0.0000     0.0000 ca         1 CFG      -0.057500
      3 C6           2.0730     0.0000     1.1980 ca         1 CFG      -0.168300
      4 C7           1.3850    -0.0000     2.3960 ca         1 CFG      -0.057500
      5 C8           0.0030    -0.0010     2.4020 ca         1 CFG      -0.170000
      6 C15          5.5270     3.3500    -0.3510 cc         1 CFG      -0.217200
      7 C20          4.0830    -1.3630     1.5950 c          1 CFG       0.555100
      8 C24          5.4810    -3.8260     2.0400 ca         1 CFG      -0.127000
      9 C26          5.2390    -6.2010     1.8520 ca         1 CFG      -0.042200
     10 C28          3.8720    -4.7590     0.5150 ca         1 CFG      -0.127000
     11 C1          -2.6990     0.0010     2.4770 c3         1 CFG       0.243700
     12 C3          -0.6930     0.0010     1.2010 ca         1 CFG       0.165100
     13 C9           3.5810     0.0000     1.1960 c3         1 CFG      -0.011000
     14 N10          4.0700     0.9990     2.1490 n          1 CFG      -0.104800
     15 C11          3.8630     0.8040     3.5860 c3         1 CFG       0.051300
     16 C12          4.7110     2.0980     1.7040 c          1 CFG       0.631300
     17 O13          5.2180     2.8680     2.4940 o          1 CFG      -0.603100
     18 C14          4.7950     2.3680     0.2480 cd         1 CFG      -0.023100
     19 C16          5.2630     3.1780    -1.7390 c          1 CFG       0.540700
     20 O17          5.7100     3.8400    -2.6610 o          1 CFG      -0.661500
     21 N18          4.4180     2.1300    -1.8230 ns         1 CFG      -0.008400
     22 O19          4.1670     1.6910    -0.7240 os         1 CFG      -0.152200
     23 O21          4.4590    -1.5630     2.7300 o          1 CFG      -0.633100
     24 N22          4.1160    -2.3610     0.6890 ns         1 CFG      -0.014100
     25 C23          4.4900    -3.6510     1.0820 ca         1 CFG      -0.103400
     26 C25          5.8520    -5.1010     2.4220 ca         1 CFG      -0.050000
     27 C27          4.2520    -6.0290     0.8970 ca         1 CFG      -0.050000
     28 C30          7.1400    -8.5100     1.2710 c3         1 CFG      -0.001767
     29 C31          6.3220    -7.8980     4.1380 c3         1 CFG      -0.001767
     30 C32          4.2980    -9.0780     2.1970 c3         1 CFG      -0.001767
     31 H1          -0.5420     0.0010    -0.9380 ha         1 CFG       0.122500
     32 H2           1.9230    -0.0000    -0.9380 ha         1 CFG       0.118000
     33 H3           1.9300    -0.0010     3.3330 ha         1 CFG       0.118000
     34 H4          -0.5360    -0.0000     3.3420 ha         1 CFG       0.122500
     35 H5           6.5350     3.5580    -0.0120 ha         1 CFG       0.166000
     36 H6           5.9630    -2.9650     2.4850 ha         1 CFG       0.120500
     37 H7           3.0990    -4.6250    -0.2320 ha         1 CFG       0.120500
     38 H8          -3.7730     0.0010     2.3360 h1         1 CFG      -0.000300
     39 H9          -2.4060    -0.8910     3.0170 h1         1 CFG      -0.000300
     40 H10         -2.4090     0.8780     3.0430 h1         1 CFG      -0.000300
     41 H11          3.9400     0.2420     0.2030 h1         1 CFG       0.071700
     42 H12          4.8080     0.9110     4.1040 h1         1 CFG       0.034700
     43 H13          3.4660    -0.1890     3.7620 h1         1 CFG       0.034700
     44 H14          3.1630     1.5440     3.9540 h1         1 CFG       0.034700
     45 H15          4.0490     1.7650    -2.6790 hn         1 CFG       0.218500
     46 H16          3.9060    -2.1720    -0.2710 hn         1 CFG       0.164500
     47 H17          6.6240    -5.2390     3.1690 ha         1 CFG       0.105000
     48 H18          3.7720    -6.8940     0.4540 ha         1 CFG       0.105000
     49 H19          7.9850    -7.8400     1.3710 hc         1 CFG       0.021811
     50 H20          6.8180    -8.5350     0.2370 hc         1 CFG       0.021811
     51 H21          7.4300    -9.5060     1.5830 hc         1 CFG       0.021811
     52 H22          5.5930    -7.3760     4.7450 hc         1 CFG       0.021811
     53 H23          7.2560    -7.3480     4.1420 hc         1 CFG       0.021811
     54 H24          6.4850    -8.8900     4.5410 hc         1 CFG       0.021811
     55 H25          4.0890    -9.2450     1.1470 hc         1 CFG       0.021811
     56 H26          4.4820   -10.0280     2.6840 hc         1 CFG       0.021811
     57 H27          3.4490    -8.5920     2.6620 hc         1 CFG       0.021811
     58 O2          -2.0520     0.0010     1.2030 os         1 CFG      -0.305900
     59 Si           5.7500    -7.9230     2.3650 Si         1 CFG      -0.177800
@<TRIPOS>BOND
     1     1     2 ar  
     2     1    12 ar  
     3     1    31 1   
     4     2     3 ar  
     5     2    32 1   
     6     3     4 ar  
     7     3    13 1   
     8     4     5 ar  
     9     4    33 1   
    10     5    12 ar  
    11     5    34 1   
    12     6    18 2   
    13     6    19 1   
    14     6    35 1   
    15     7    13 1   
    16     7    23 2   
    17     7    24 1   
    18     8    25 ar  
    19     8    26 ar  
    20     8    36 1   
    21     9    26 ar  
    22     9    27 ar  
    23     9    59 1   
    24    10    25 ar  
    25    10    27 ar  
    26    10    37 1   
    27    11    38 1   
    28    11    39 1   
    29    11    40 1   
    30    11    58 1   
    31    12    58 1   
    32    13    14 1   
    33    13    41 1   
    34    14    15 1   
    35    14    16 1   
    36    15    42 1   
    37    15    43 1   
    38    15    44 1   
    39    16    17 2   
    40    16    18 1   
    41    18    22 1   
    42    19    20 2   
    43    19    21 1   
    44    21    22 1   
    45    21    45 1   
    46    24    25 1   
    47    24    46 1   
    48    26    47 1   
    49    27    48 1   
    50    28    49 1   
    51    28    50 1   
    52    28    51 1   
    53    28    59 1   
    54    29    52 1   
    55    29    53 1   
    56    29    54 1   
    57    29    59 1   
    58    30    55 1   
    59    30    56 1   
    60    30    57 1   
    61    30    59 1   
@<TRIPOS>SUBSTRUCTURE
     1 CFG         1 TEMP              0 ****  ****    0 ROOT
