@<TRIPOS>MOLECULE
molecule
   12    11     1     0     0
SMALL
bcc


@<TRIPOS>ATOM
      1 F7           0.0000     0.0000     0.0000 f          1 CFH      -0.207133
      2 C1           1.3990     0.0000     0.0000 c3         1 CFH       0.612900
      3 F5           1.8650     0.0000     1.3190 f          1 CFH      -0.207133
      4 F6           1.8650    -1.1410    -0.6600 f          1 CFH      -0.207133
      5 C2           1.9080     1.2500    -0.7200 c3         1 CFH       0.043100
      6 O4           1.4320     2.4160    -0.0460 oh         1 CFH      -0.551800
      7 C3           3.4380     1.2500    -0.7200 c3         1 CFH       0.612900
      8 F10          3.9050     0.1090    -1.3800 f          1 CFH      -0.207133
      9 F8           3.9040     2.3930    -1.3790 f          1 CFH      -0.207133
     10 F9           3.9040     1.2500     0.5980 f          1 CFH      -0.207133
     11 H2           1.5470     1.2510    -1.7420 h1         1 CFH       0.095700
     12 HO4          0.9080     2.9300    -0.6380 ho         1 CFH       0.430000
@<TRIPOS>BOND
     1     1     2 1
     2     2     3 1
     3     2     4 1
     4     2     5 1
     5     5     6 1
     6     5     7 1
     7     7     8 1
     8     7     9 1
     9     7    10 1
    10     5    11 1
    11     6    12 1
@<TRIPOS>SUBSTRUCTURE
     1 CFH         1 TEMP              0 ****  ****    0 ROOT
