@<TRIPOS>MOLECULE
CFH
   12    11     1     0     0
SMALL
bcc


@<TRIPOS>ATOM
      1 F7         -0.0280   -0.1730    0.0560 f         1 CFH     -0.218800
      2 C1          1.3290   -0.0080    0.1350 c3        1 CFH      0.626900
      3 F5          1.6120    0.0990    1.4660 f         1 CFH     -0.218800
      4 F6          1.8590   -1.2060   -0.2650 f         1 CFH     -0.218800
      5 C2          1.8270    1.1970   -0.7420 c3        1 CFH      0.064100
      6 O4          1.3060    2.3490   -0.1370 oh        1 CFH     -0.549800
      7 C3          3.3970    1.2850   -0.8130 c3        1 CFH      0.626900
      8 F10         3.9430    0.4370   -1.7380 f         1 CFH     -0.218800
      9 F8          3.8040    2.5410   -1.1930 f         1 CFH     -0.218800
     10 F9          4.0530    1.0300    0.3570 f         1 CFH     -0.218800
     11 H2          1.4440    1.0540   -1.7900 h1        1 CFH      0.103700
     12 HO4         1.5310    3.1040   -0.7030 ho        1 CFH      0.439000
@<TRIPOS>BOND
     1    1    2 1   
     2    2    3 1   
     3    2    4 1   
     4    2    5 1   
     5    5    6 1   
     6    5    7 1   
     7    5   11 1   
     8    6   12 1   
     9    7    8 1   
    10    7    9 1   
    11    7   10 1   
@<TRIPOS>SUBSTRUCTURE
     1 CFH         1 TEMP              0 ****  ****    0 ROOT
