@<TRIPOS>MOLECULE
molecule
   16    16     1     0     0
SMALL
bcc


@<TRIPOS>ATOM
      1 O01          0.0000     0.0000     0.0000 o          1 CFI      -0.291300
      2 N02          1.2180     0.0000     0.0000 n2         1 CFI       0.117600
      3 N03          1.8630     0.0000     1.1170 nh         1 CFI      -0.152600
      4 O04          1.1550     0.0010     2.3430 oh         1 CFI      -0.373300
      5 C05          3.2600    -0.0000     1.1180 ca         1 CFI       0.159600
      6 C06          3.9560     0.0050    -0.0850 ca         1 CFI      -0.133500
      7 C07          5.3360     0.0040    -0.0820 ca         1 CFI      -0.109500
      8 C08          6.0260    -0.0010     1.1180 ca         1 CFI      -0.135000
      9 C09          5.3360    -0.0060     2.3160 ca         1 CFI      -0.109500
     10 C10          3.9550    -0.0000     2.3200 ca         1 CFI      -0.133500
     11 H1           0.2550    -0.2320     2.1870 ho         1 CFI       0.437000
     12 H2           3.4160     0.0090    -1.0240 ha         1 CFI       0.154500
     13 H3           5.8800     0.0080    -1.0190 ha         1 CFI       0.140000
     14 H4           7.1090    -0.0040     1.1180 ha         1 CFI       0.136000
     15 H5           5.8800    -0.0080     3.2530 ha         1 CFI       0.140000
     16 H6           3.4150    -0.0040     3.2590 ha         1 CFI       0.154500
@<TRIPOS>BOND
     1     7     6 ar
     2     7     8 ar
     3     6     5 ar
     4     8     9 ar
     5     5     3 1
     6     5    10 ar
     7     4     3 1
     8     3     2 1
     9     9    10 ar
    10     2     1 2
    11     4    11 1
    12     6    12 1
    13     7    13 1
    14     8    14 1
    15     9    15 1
    16    10    16 1
@<TRIPOS>SUBSTRUCTURE
     1 CFI         1 TEMP              0 ****  ****    0 ROOT
