@<TRIPOS>MOLECULE
CFI
   16    16     1     0     0
SMALL
bcc


@<TRIPOS>ATOM
      1 O01          0.0000     0.0000     0.0000 o          1 CFI      -0.353700
      2 N02          1.2180     0.0000     0.0000 n2         1 CFI       0.135700
      3 N03          1.8630     0.0000     1.1170 nh         1 CFI       0.124700
      4 O04          1.1550     0.0010     2.3430 oh         1 CFI      -0.447300
      5 C05          3.2600    -0.0000     1.1180 ca         1 CFI       0.004600
      6 C06          3.9560     0.0050    -0.0850 ca         1 CFI      -0.106500
      7 C07          5.3360     0.0040    -0.0820 ca         1 CFI      -0.080500
      8 C08          6.0260    -0.0010     1.1180 ca         1 CFI      -0.104000
      9 C09          5.3360    -0.0060     2.3160 ca         1 CFI      -0.080500
     10 C10          3.9550    -0.0000     2.3200 ca         1 CFI      -0.106500
     11 H1           0.2550    -0.2320     2.1870 ho         1 CFI       0.437000
     12 H2           3.4160     0.0090    -1.0240 ha         1 CFI       0.127500
     13 H3           5.8800     0.0080    -1.0190 ha         1 CFI       0.107500
     14 H4           7.1090    -0.0040     1.1180 ha         1 CFI       0.106000
     15 H5           5.8800    -0.0080     3.2530 ha         1 CFI       0.107500
     16 H6           3.4150    -0.0040     3.2590 ha         1 CFI       0.127500
@<TRIPOS>BOND
     1     1     2 2   
     2     2     3 1   
     3     3     4 1   
     4     3     5 1   
     5     4    11 1   
     6     5     6 ar  
     7     5    10 ar  
     8     6     7 ar  
     9     6    12 1   
    10     7     8 ar  
    11     7    13 1   
    12     8     9 ar  
    13     8    14 1   
    14     9    10 ar  
    15     9    15 1   
    16    10    16 1   
@<TRIPOS>SUBSTRUCTURE
     1 CFI         1 TEMP              0 ****  ****    0 ROOT
