@<TRIPOS>MOLECULE
CFJ
   61    64     1     0     0
SMALL
bcc


@<TRIPOS>ATOM
      1 N3           0.0000     0.0000     0.0000 n          1 CFJ       0.161000
      2 C4           1.3890     0.0000     0.0000 ca         1 CFJ      -0.082000
      3 C5           2.1140     0.0000     1.1820 ca         1 CFJ      -0.158000
      4 C6           3.4930     0.0000     1.1430 ca         1 CFJ      -0.060000
      5 C7           4.1660     0.0000    -0.0750 ca         1 CFJ      -0.121000
      6 C13          7.7310    -3.0250    -2.0830 c3         1 CFJ      -0.136000
      7 C15         10.2340    -2.2680    -3.4960 c2         1 CFJ       0.216000
      8 C20         13.6180    -4.2250    -6.1480 ca         1 CFJ      -0.047000
      9 C21         12.8850    -4.0350    -7.3240 ca         1 CFJ       0.037000
     10 C22         13.3420    -4.6050    -8.5550 c1         1 CFJ      -0.102000
     11 C24         11.7040    -3.2870    -7.2940 ca         1 CFJ      -0.073000
     12 C26         11.2670    -2.7390    -6.1060 ca         1 CFJ      -0.119000
     13 C28          2.0650     0.0000    -1.2320 ca         1 CFJ      -0.170000
     14 C1          -0.9850    -1.4340     1.7180 c3         1 CFJ       0.096000
     15 C2          -0.7260     0.0050     1.2720 c3         1 CFJ      -0.361000
     16 N8           5.5670     0.0010    -0.0980 ns         1 CFJ       0.075000
     17 C9           6.2260    -0.6760    -1.0580 c2         1 CFJ       0.199000
     18 O10          5.6090    -1.2180    -1.9510 o          1 CFJ      -0.363000
     19 C11          7.7300    -0.7630    -1.0240 c3         1 CFJ      -0.144000
     20 C12          8.2220    -1.5820    -2.2180 c3         1 CFJ      -0.023000
     21 C14          9.7520    -1.5650    -2.2530 c3         1 CFJ      -0.223000
     22 O16          9.4320    -2.7360    -4.2770 o          1 CFJ      -0.381000
     23 N17         11.5540    -2.3760    -3.7400 ns         1 CFJ       0.104000
     24 C18         11.9990    -2.9310    -4.9410 ca         1 CFJ      -0.054000
     25 C19         13.1750    -3.6750    -4.9670 ca         1 CFJ      -0.134000
     26 N23         13.6900    -5.0710    -9.5310 n1         1 CFJ      -0.045000
     27 C27          3.4570    -0.0000    -1.2660 ca         1 CFJ       0.006000
     28 C29          1.2620     0.0010    -2.4690 c2         1 CFJ       0.281000
     29 O30          1.7980     0.0000    -3.5600 o          1 CFJ      -0.351000
     30 N31         -0.0840     0.0000    -2.3570 n          1 CFJ       0.079000
     31 C32         -0.9040     0.0010    -3.5710 c3         1 CFJ      -0.307000
     32 C33         -1.1910    -1.4410    -3.9940 DU         1 CFJ      -0.227000
     33 C34         -0.6840     0.0010    -1.1570 c2         1 CFJ       0.200000
     34 O35         -1.9000     0.0010    -1.1140 o          1 CFJ      -0.389000
     35 H1           1.5970     0.0230     2.1340 ha         1 CFJ       0.120000
     36 H2           4.0610     0.0380     2.0650 ha         1 CFJ       0.108000
     37 H3           7.4890    -3.2300    -1.0470 hc         1 CFJ       0.057000
     38 H4           8.5090    -3.7040    -2.4130 hc         1 CFJ       0.057000
     39 H5           6.8480    -3.1650    -2.6950 hc         1 CFJ       0.057000
     40 H6          14.5370    -4.7970    -6.1690 ha         1 CFJ       0.116000
     41 H7          10.3520    -2.1600    -6.0820 ha         1 CFJ       0.160000
     42 H8          -0.0990    -1.8270     2.2040 hc         1 CFJ       0.054667
     43 H9          -1.8160    -1.4530     2.4130 hc         1 CFJ       0.054667
     44 H10         -1.2220    -2.0430     0.8540 hc         1 CFJ       0.054667
     45 H11         -0.1010     0.4400     2.0430 h1         1 CFJ       0.078500
     46 H12         -0.9830    -1.0110     1.5460 h1         1 CFJ       0.078500
     47 H13          6.0780    -0.6130     0.5050 hn         1 CFJ       0.074000
     48 H14          8.0560    -0.9730    -0.0120 hc         1 CFJ       0.079500
     49 H15          8.1540     0.1790    -1.3510 hc         1 CFJ       0.079500
     50 H16          7.8350    -1.1530    -3.1340 hc         1 CFJ       0.098000
     51 H17         10.5210    -0.8880    -1.9000 hc         1 CFJ       0.100500
     52 H18          9.5360    -2.2980    -1.4850 hc         1 CFJ       0.100500
     53 H19         12.2140    -1.9460    -3.1210 hn         1 CFJ       0.083000
     54 H20         13.7410    -3.8210    -4.0550 ha         1 CFJ       0.112000
     55 H21          3.9860    -0.0000    -2.2110 ha         1 CFJ       0.167000
     56 H22         -0.5990    -0.8150    -4.2140 DU         1 CFJ       0.293000
     57 H23         -1.9470    -0.1210    -3.3030 h1         1 CFJ       0.136000
     58 H24         -0.4130    -2.0910    -3.6120 ha         1 CFJ       0.072000
     59 H25         -2.1490    -1.7510    -3.5930 ha         1 CFJ       0.072000
     60 H26         -1.2160    -1.5030    -5.0750 ha         1 CFJ       0.072000
     61 Cl          10.5360    -3.0060    -8.6110 cl         1 CFJ       0.081000
@<TRIPOS>BOND
     1     1     2 1   
     2     1    15 1   
     3     1    33 1   
     4     2     3 1   
     5     2    13 1   
     6     3     4 1   
     7     3    35 1   
     8     4     5 1   
     9     4    36 1   
    10     5    16 1   
    11     5    27 1   
    12     6    20 1   
    13     6    37 1   
    14     6    38 1   
    15     6    39 1   
    16     7    21 1   
    17     7    22 1   
    18     7    23 1   
    19     8     9 1   
    20     8    25 1   
    21     8    40 1   
    22     9    10 1   
    23     9    11 1   
    24    10    26 1   
    25    11    12 1   
    26    11    61 1   
    27    12    24 1   
    28    12    41 1   
    29    13    27 1   
    30    13    28 1   
    31    14    15 1   
    32    14    42 1   
    33    14    43 1   
    34    14    44 1   
    35    15    45 1   
    36    15    46 1   
    37    16    17 1   
    38    16    47 1   
    39    17    18 1   
    40    17    19 1   
    41    19    20 1   
    42    19    48 1   
    43    19    49 1   
    44    20    21 1   
    45    20    50 1   
    46    21    51 1   
    47    21    52 1   
    48    23    24 1   
    49    23    53 1   
    50    24    25 1   
    51    25    54 1   
    52    27    55 1   
    53    28    29 1   
    54    28    30 1   
    55    30    31 1   
    56    30    33 1   
    57    31    32 1   
    58    31    56 1   
    59    31    57 1   
    60    32    56 1   
    61    32    58 1   
    62    32    59 1   
    63    32    60 1   
    64    33    34 1   
@<TRIPOS>SUBSTRUCTURE
     1 CFJ         1 TEMP              0 ****  ****    0 ROOT
