@<TRIPOS>MOLECULE
molecule
   61    63     1     0     0
SMALL
bcc


@<TRIPOS>ATOM
      1 N3           0.0000     0.0000     0.0000 n          1 CFJ      -0.341000
      2 C4           1.3890     0.0000     0.0000 ca         1 CFJ       0.059600
      3 C5           2.1140     0.0000     1.1820 ca         1 CFJ      -0.184000
      4 C6           3.4930     0.0000     1.1430 ca         1 CFJ      -0.088000
      5 C7           4.1660     0.0000    -0.0750 ca         1 CFJ      -0.033400
      6 C13          7.7310    -3.0250    -2.0830 c3         1 CFJ      -0.095100
      7 C15         10.2340    -2.2680    -3.4960 c          1 CFJ       0.664100
      8 C20         13.6180    -4.2250    -6.1480 ca         1 CFJ      -0.066000
      9 C21         12.8850    -4.0350    -7.3240 ca         1 CFJ      -0.019000
     10 C22         13.3420    -4.6050    -8.5550 cg         1 CFJ       0.238800
     11 C24         11.7040    -3.2870    -7.2940 ca         1 CFJ       0.085400
     12 C26         11.2670    -2.7390    -6.1060 ca         1 CFJ      -0.136000
     13 C28          2.0650     0.0000    -1.2320 ca         1 CFJ      -0.191600
     14 C1          -0.9850    -1.4340     1.7180 c3         1 CFJ      -0.104100
     15 C2          -0.7260     0.0050     1.2720 c3         1 CFJ      -0.147000
     16 N8           5.5670     0.0010    -0.0980 ns         1 CFJ      -0.374100
     17 C9           6.2260    -0.6760    -1.0580 c          1 CFJ       0.589100
     18 O10          5.6090    -1.2180    -1.9510 o          1 CFJ      -0.569100
     19 C11          7.7300    -0.7630    -1.0240 c3         1 CFJ      -0.168400
     20 C12          8.2220    -1.5820    -2.2180 c3         1 CFJ      -0.016700
     21 C14          9.7520    -1.5650    -2.2530 c3         1 CFJ      -0.226400
     22 O16          9.4320    -2.7360    -4.2770 o          1 CFJ      -0.581100
     23 N17         11.5540    -2.3760    -3.7400 ns         1 CFJ      -0.481100
     24 C18         11.9990    -2.9310    -4.9410 ca         1 CFJ       0.083600
     25 C19         13.1750    -3.6750    -4.9670 ca         1 CFJ      -0.166000
     26 N23         13.6900    -5.0710    -9.5310 n1         1 CFJ      -0.349800
     27 C27          3.4570    -0.0000    -1.2660 ca         1 CFJ      -0.022000
     28 C29          1.2620     0.0010    -2.4690 c          1 CFJ       0.718100
     29 O30          1.7980     0.0000    -3.5600 o          1 CFJ      -0.593500
     30 N31         -0.0840     0.0000    -2.3570 n          1 CFJ      -0.470400
     31 C32         -0.9040     0.0010    -3.5710 c3         1 CFJ      -0.084000
     32 C33         -1.1910    -1.4410    -3.9940 c3         1 CFJ      -0.230100
     33 C34         -0.6840     0.0010    -1.1570 c          1 CFJ       0.810500
     34 O35         -1.9000     0.0010    -1.1140 o          1 CFJ      -0.627500
     35 H1           1.5970     0.0230     2.1340 ha         1 CFJ       0.139000
     36 H2           4.0610     0.0380     2.0650 ha         1 CFJ       0.138000
     37 H3           7.4890    -3.2300    -1.0470 hc         1 CFJ       0.047033
     38 H4           8.5090    -3.7040    -2.4130 hc         1 CFJ       0.047033
     39 H5           6.8480    -3.1650    -2.6950 hc         1 CFJ       0.047033
     40 H6          14.5370    -4.7970    -6.1690 ha         1 CFJ       0.151000
     41 H7          10.3520    -2.1600    -6.0820 ha         1 CFJ       0.184000
     42 H8          -0.0990    -1.8270     2.2040 hc         1 CFJ       0.073700
     43 H9          -1.8160    -1.4530     2.4130 hc         1 CFJ       0.073700
     44 H10         -1.2220    -2.0430     0.8540 hc         1 CFJ       0.073700
     45 H11         -0.1010     0.4400     2.0430 h1         1 CFJ       0.140700
     46 H12         -0.9830    -1.0110     1.5460 h1         1 CFJ       0.140700
     47 H13          6.0780    -0.6130     0.5050 hn         1 CFJ       0.275500
     48 H14          8.0560    -0.9730    -0.0120 hc         1 CFJ       0.072700
     49 H15          8.1540     0.1790    -1.3510 hc         1 CFJ       0.072700
     50 H16          7.8350    -1.1530    -3.1340 hc         1 CFJ       0.088700
     51 H17         10.5210    -0.8880    -1.9000 hc         1 CFJ       0.085700
     52 H18          9.5360    -2.2980    -1.4850 hc         1 CFJ       0.085700
     53 H19         12.2140    -1.9460    -3.1210 hn         1 CFJ       0.326500
     54 H20         13.7410    -3.8210    -4.0550 ha         1 CFJ       0.141000
     55 H21          3.9860    -0.0000    -2.2110 ha         1 CFJ       0.193000
     56 H22         -0.5990    -0.8150    -4.2140 h1         1 CFJ       0.199200
     57 H23         -1.9470    -0.1210    -3.3030 h1         1 CFJ       0.199200
     58 H24         -0.4130    -2.0910    -3.6120 hc         1 CFJ       0.070033
     59 H25         -2.1490    -1.7510    -3.5930 hc         1 CFJ       0.070033
     60 H26         -1.2160    -1.5030    -5.0750 hc         1 CFJ       0.070033
     61 Cl          10.5360    -3.0060    -8.6110 cl         1 CFJ      -0.093400
@<TRIPOS>BOND
     1    61    11 1
     2    26    10 3
     3    10     9 1
     4    11     9 ar
     5    11    12 ar
     6     9     8 ar
     7    12    24 ar
     8     8    25 ar
     9    24    25 ar
    10    24    23 1
    11    23     7 1
    12    22     7 2
    13     7    21 1
    14    21    20 1
    15     6    20 1
    16    32    31 1
    17    20    19 1
    18    15     1 1
    19    15    14 1
    20    34    33 2
    21     1    33 1
    22     1     2 1
    23     3     2 ar
    24     3     4 ar
    25    33    30 1
    26     2    13 ar
    27     4     5 ar
    28    30    31 1
    29    30    28 1
    30    13    28 1
    31    13    27 ar
    32     5    16 1
    33     5    27 ar
    34    28    29 2
    35    16    17 1
    36    19    17 1
    37    17    18 2
    38     3    35 1
    39     4    36 1
    40     6    37 1
    41     6    38 1
    42     6    39 1
    43     8    40 1
    44    12    41 1
    45    14    42 1
    46    14    43 1
    47    14    44 1
    48    15    45 1
    49    15    46 1
    50    16    47 1
    51    19    48 1
    52    19    49 1
    53    20    50 1
    54    21    51 1
    55    21    52 1
    56    23    53 1
    57    25    54 1
    58    27    55 1
    59    31    56 1
    60    31    57 1
    61    32    58 1
    62    32    59 1
    63    32    60 1
@<TRIPOS>SUBSTRUCTURE
     1 CFJ         1 TEMP              0 ****  ****    0 ROOT
