@<TRIPOS>MOLECULE
CFK
   31    32     1     0     0
SMALL
bcc


@<TRIPOS>ATOM
      1 C1          0.1830   -0.0110   -0.1570 ca        1 CFK     -0.040000
      2 C2          1.5740    0.0980   -0.0380 ca        1 CFK     -0.123500
      3 C3          2.1660    0.1040    1.2170 ca        1 CFK     -0.070500
      4 C4          1.3750    0.0020    2.3840 ca        1 CFK     -0.116000
      5 C5         -0.0230   -0.1080    2.2510 ca        1 CFK     -0.070500
      6 C6         -0.6080   -0.1140    0.9880 ca        1 CFK     -0.123500
      7 C7          2.0050    0.0070    3.6680 cc        1 CFK      0.135900
      8 C8          1.3520    0.0810    4.9130 cd        1 CFK     -0.214000
      9 C9          2.2600    0.0650    5.9930 cd        1 CFK      0.150600
     10 C10         3.6200   -0.0220    5.5380 cc        1 CFK     -0.366700
     11 S11         3.6570   -0.0810    3.8570 ss        1 CFK      0.149200
     12 C12         4.7340   -0.0530    6.4130 c         1 CFK      0.620700
     13 O13         4.7680   -0.0130    7.6450 o         1 CFK     -0.506100
     14 N14         6.1090   -0.1500    5.7790 n4        1 CFK     -0.750400
     15 N15         1.9230    0.1290    7.3520 n         1 CFK     -0.416100
     16 C16         0.6180    0.2010    7.7870 c         1 CFK      0.654100
     17 O17        -0.4250    0.2180    7.1340 o         1 CFK     -0.436100
     18 N18         0.3890    0.2710    9.3000 n4        1 CFK     -0.746400
     19 H1         -0.2850   -0.0150   -1.1570 ha        1 CFK      0.173000
     20 H2          2.1970    0.1810   -0.9440 ha        1 CFK      0.169500
     21 H3          3.2610    0.1980    1.3020 ha        1 CFK      0.136500
     22 H5         -0.6610   -0.1960    3.1440 ha        1 CFK      0.136500
     23 H6         -1.7040   -0.2020    0.8930 ha        1 CFK      0.169500
     24 H8          0.2610    0.1510    5.0140 ha        1 CFK      0.214000
     25 HN14        6.8240   -0.1610    6.5230 hn        1 CFK      0.477133
     26 HN1A        6.1890   -1.0130    5.2300 hn        1 CFK      0.477133
     27 HN15        2.6840    0.1190    8.0080 hn        1 CFK      0.377500
     28 HN18        0.8220    1.1090    9.7040 hn        1 CFK      0.486800
     29 HN1B       -0.6340    0.3200    9.4480 hn        1 CFK      0.486800
     30 H143        6.2790    0.6550    5.1680 hn        1 CFK      0.477133
     31 H183        0.7530   -0.5630    9.7710 hn        1 CFK      0.486800
@<TRIPOS>BOND
     1    1    2 ar  
     2    1    6 ar  
     3    1   19 1   
     4    2    3 ar  
     5    2   20 1   
     6    3    4 ar  
     7    3   21 1   
     8    4    5 ar  
     9    4    7 1   
    10    5    6 ar  
    11    5   22 1   
    12    6   23 1   
    13    7    8 2   
    14    7   11 1   
    15    8    9 1   
    16    8   24 1   
    17    9   10 2   
    18    9   15 1   
    19   10   11 1   
    20   10   12 1   
    21   12   13 2   
    22   12   14 1   
    23   14   25 1   
    24   14   26 1   
    25   14   30 1   
    26   15   16 1   
    27   15   27 1   
    28   16   17 2   
    29   16   18 1   
    30   18   28 1   
    31   18   29 1   
    32   18   31 1   
@<TRIPOS>SUBSTRUCTURE
     1 CFK         1 TEMP              0 ****  ****    0 ROOT
