@<TRIPOS>MOLECULE
CFP
   13    14     1     0     0
SMALL
bcc


@<TRIPOS>ATOM
      1 N9         -0.0240   -0.0010   -0.0240 na        1 CFP     -0.376000
      2 C8          1.3890    0.0000    0.0030 cc        1 CFP      0.423700
      3 N7          1.9100    0.0000    1.2390 nd        1 CFP     -0.515100
      4 C5          0.8040    0.0000    2.1010 ca        1 CFP     -0.173200
      5 C6          0.6510    0.0000    3.5070 ca        1 CFP      0.605300
      6 CL6         2.0320    0.0010    4.4950 cl        1 CFP     -0.091000
      7 N1         -0.5680   -0.0000    4.0760 nb        1 CFP     -0.717000
      8 C2         -1.6630   -0.0010    3.2220 ca        1 CFP      0.872200
      9 N3         -1.6870   -0.0010    1.8510 nb        1 CFP     -0.703000
     10 C4         -0.4360   -0.0010    1.3120 ca        1 CFP      0.448800
     11 F2         -2.8740   -0.0010    3.8330 f         1 CFP     -0.184200
     12 HN9        -0.6120   -0.0010   -0.8160 hn        1 CFP      0.326700
     13 H8          1.9730    0.0000   -0.9280 h5        1 CFP      0.082800
@<TRIPOS>BOND
     1    1    2 1   
     2    1   10 1   
     3    1   12 1   
     4    2    3 2   
     5    2   13 1   
     6    3    4 1   
     7    4    5 ar  
     8    4   10 ar  
     9    5    6 1   
    10    5    7 ar  
    11    7    8 ar  
    12    8    9 ar  
    13    8   11 1   
    14    9   10 ar  
@<TRIPOS>SUBSTRUCTURE
     1 CFP         1 TEMP              0 ****  ****    0 ROOT
