@<TRIPOS>MOLECULE
molecule
   13    14     1     0     0
SMALL
bcc


@<TRIPOS>ATOM
      1 N9           0.0000     0.0000     0.0000 na         1 CFP      -0.359000
      2 C8           1.3640     0.0000     0.0000 cc         1 CFP       0.439700
      3 N7           1.8100     0.0000     1.2230 nd         1 CFP      -0.564100
      4 C5           0.7620     0.0000     2.0850 ca         1 CFP      -0.161200
      5 C6           0.6360    -0.0000     3.4750 ca         1 CFP       0.644300
      6 Cl6          2.0420    -0.0000     4.4930 cl         1 CFP      -0.105000
      7 N1          -0.5780     0.0000     4.0000 nb         1 CFP      -0.768000
      8 C2          -1.6580     0.0010     3.2360 ca         1 CFP       0.935200
      9 N3          -1.5890    -0.0040     1.9200 nb         1 CFP      -0.775000
     10 C4          -0.4130     0.0000     1.3080 ca         1 CFP       0.478800
     11 F2          -2.8730    -0.0000     3.8260 f          1 CFP      -0.176200
     12 HN9         -0.5920     0.0000    -0.8070 hn         1 CFP       0.321700
     13 H8           1.9850     0.0000    -0.8880 h5         1 CFP       0.088800
@<TRIPOS>BOND
     1     1     2 1
     2     1    10 1
     3     1    12 1
     4     2     3 2
     5     2    13 1
     6     3     4 1
     7     4     5 ar
     8     4    10 ar
     9     5     6 1
    10     5     7 ar
    11     7     8 ar
    12     8     9 ar
    13     8    11 1
    14     9    10 ar
@<TRIPOS>SUBSTRUCTURE
     1 CFP         1 TEMP              0 ****  ****    0 ROOT
