@<TRIPOS>MOLECULE
CFS
   36    36     1     0     0
SMALL
bcc


@<TRIPOS>ATOM
      1 N            0.0000     0.0000     0.0000 nz         1 CFS       0.021400
      2 CA           1.4690     0.0000     0.0000 c3         1 CFS      -0.098500
      3 CB           1.9780     0.0000     1.4420 c3         1 CFS      -0.041400
      4 CG           1.4690     1.2490     2.1640 c3         1 CFS      -0.068700
      5 CD1          1.9780     1.2480     3.6060 c3         1 CFS      -0.022900
      6 CD2          1.9770     2.4980     1.4440 c3         1 CFS      -0.022900
      7 CE1          1.4680     2.4970     4.3280 c3         1 CFS      -0.021900
      8 CE2          1.4670     3.7470     2.1650 c3         1 CFS      -0.021900
      9 CZ           1.9760     3.7460     3.6080 c3         1 CFS      -0.025400
     10 CH           1.9780    -1.2480    -0.7220 c3         1 CFS       0.150100
     11 OH1          1.5030    -2.4150    -0.0490 oh         1 CFS      -0.582800
     12 CM           1.4680    -1.2480    -2.1630 c3         1 CFS       0.210600
     13 F1           0.0700    -1.2490    -2.1630 f          1 CFS      -0.225300
     14 F2           1.9340    -0.1050    -2.8230 f          1 CFS      -0.225300
     15 C            1.9710    -2.4770    -2.8750 c          1 CFS       0.929600
     16 O            3.1440    -2.4430    -3.5270 o          1 CFS      -0.810300
     17 OXT          1.3200    -3.4940    -2.8580 o          1 CFS      -0.810300
     18 HN1         -0.3340     0.6880     0.6460 hn         1 CFS       0.239800
     19 HN2         -0.3340     0.2160    -0.9190 hn         1 CFS       0.239800
     20 HA           1.8290     0.8850    -0.5100 hx         1 CFS       0.107700
     21 HB1          1.6170    -0.8850     1.9520 hc         1 CFS       0.054700
     22 HB2          3.0620    -0.0000     1.4420 hc         1 CFS       0.054700
     23 HG           0.3860     1.2520     2.1660 hc         1 CFS       0.007700
     24 HD11         1.6130     0.3650     4.1150 hc         1 CFS       0.021450
     25 HD12         3.0610     1.2500     3.6050 hc         1 CFS       0.021450
     26 HD21         1.6120     2.4990     0.4240 hc         1 CFS       0.021450
     27 HD22         3.0600     2.4990     1.4450 hc         1 CFS       0.021450
     28 HE11         0.3850     2.4970     4.3260 hc         1 CFS       0.018450
     29 HE12         1.8330     2.4970     5.3480 hc         1 CFS       0.018450
     30 HE21         0.3840     3.7450     2.1660 hc         1 CFS       0.018450
     31 HE22         1.8320     4.6310     1.6560 hc         1 CFS       0.018450
     32 HZ1          1.6100     4.6290     4.1180 hc         1 CFS       0.022700
     33 HZ2          3.0590     3.7460     3.6070 hc         1 CFS       0.022700
     34 HCH          3.0610    -1.2470    -0.7220 h1         1 CFS       0.077700
     35 HH1          2.2260    -2.9950     0.1220 ho         1 CFS       0.440000
     36 HN3         -0.3340    -0.9020     0.2770 hn         1 CFS       0.239800
@<TRIPOS>BOND
     1     1     2 1   
     2     1    18 1   
     3     1    19 1   
     4     1    36 1   
     5     2     3 1   
     6     2    10 1   
     7     2    20 1   
     8     3     4 1   
     9     3    21 1   
    10     3    22 1   
    11     4     5 1   
    12     4     6 1   
    13     4    23 1   
    14     5     7 1   
    15     5    24 1   
    16     5    25 1   
    17     6     8 1   
    18     6    26 1   
    19     6    27 1   
    20     7     9 1   
    21     7    28 1   
    22     7    29 1   
    23     8     9 1   
    24     8    30 1   
    25     8    31 1   
    26     9    32 1   
    27     9    33 1   
    28    10    11 1   
    29    10    12 1   
    30    10    34 1   
    31    11    35 1   
    32    12    13 1   
    33    12    14 1   
    34    12    15 1   
    35    15    16 1   
    36    15    17 1   
@<TRIPOS>SUBSTRUCTURE
     1 CFS         1 TEMP              0 ****  ****    0 ROOT
