@<TRIPOS>MOLECULE
molecule
   36    36     1     0     0
SMALL
bcc


@<TRIPOS>ATOM
      1 N            0.0000     0.0000     0.0000 nz         1 CFS      -0.812600
      2 CA           1.4690     0.0000     0.0000 c3         1 CFS       0.089500
      3 CB           1.9780     0.0000     1.4420 c3         1 CFS      -0.106400
      4 CG           1.4690     1.2490     2.1640 c3         1 CFS      -0.086700
      5 CD1          1.9780     1.2480     3.6060 c3         1 CFS      -0.077900
      6 CD2          1.9770     2.4980     1.4440 c3         1 CFS      -0.077900
      7 CE1          1.4680     2.4970     4.3280 c3         1 CFS      -0.079900
      8 CE2          1.4670     3.7470     2.1650 c3         1 CFS      -0.079900
      9 CZ           1.9760     3.7460     3.6080 c3         1 CFS      -0.081400
     10 CH           1.9780    -1.2480    -0.7220 c3         1 CFS       0.095100
     11 OH1          1.5030    -2.4150    -0.0490 oh         1 CFS      -0.600800
     12 CM           1.4680    -1.2480    -2.1630 c3         1 CFS       0.251600
     13 F1           0.0700    -1.2490    -2.1630 f          1 CFS      -0.249300
     14 F2           1.9340    -0.1050    -2.8230 f          1 CFS      -0.249300
     15 C            1.9710    -2.4770    -2.8750 c          1 CFS       0.858600
     16 O            3.1440    -2.4430    -3.5270 o          1 CFS      -0.761800
     17 OXT          1.3200    -3.4940    -2.8580 o          1 CFS      -0.761800
     18 HN1         -0.3340     0.6880     0.6460 hn         1 CFS       0.457467
     19 HN2         -0.3340     0.2160    -0.9190 hn         1 CFS       0.457467
     20 HA           1.8290     0.8850    -0.5100 hx         1 CFS       0.122700
     21 HB1          1.6170    -0.8850     1.9520 hc         1 CFS       0.084200
     22 HB2          3.0620    -0.0000     1.4420 hc         1 CFS       0.084200
     23 HG           0.3860     1.2520     2.1660 hc         1 CFS       0.022700
     24 HD11         1.6130     0.3650     4.1150 hc         1 CFS       0.048700
     25 HD12         3.0610     1.2500     3.6050 hc         1 CFS       0.048700
     26 HD21         1.6120     2.4990     0.4240 hc         1 CFS       0.048700
     27 HD22         3.0600     2.4990     1.4450 hc         1 CFS       0.048700
     28 HE11         0.3850     2.4970     4.3260 hc         1 CFS       0.047200
     29 HE12         1.8330     2.4970     5.3480 hc         1 CFS       0.047200
     30 HE21         0.3840     3.7450     2.1660 hc         1 CFS       0.047200
     31 HE22         1.8320     4.6310     1.6560 hc         1 CFS       0.047200
     32 HZ1          1.6100     4.6290     4.1180 hc         1 CFS       0.051200
     33 HZ2          3.0590     3.7460     3.6070 hc         1 CFS       0.051200
     34 HCH          3.0610    -1.2470    -0.7220 h1         1 CFS       0.111700
     35 HH1          2.2260    -2.9950     0.1220 ho         1 CFS       0.447000
     36 HN3         -0.3340    -0.9020     0.2770 hn         1 CFS       0.457467
@<TRIPOS>BOND
     1     1     2 1
     2     1    18 1
     3     1    19 1
     4     2     3 1
     5     2    10 1
     6     2    20 1
     7     3     4 1
     8     3    21 1
     9     3    22 1
    10     4     5 1
    11     4     6 1
    12     4    23 1
    13     5     7 1
    14     5    24 1
    15     5    25 1
    16     6     8 1
    17     6    26 1
    18     6    27 1
    19     7     9 1
    20     7    28 1
    21     7    29 1
    22     8     9 1
    23     8    30 1
    24     8    31 1
    25     9    32 1
    26     9    33 1
    27    10    11 1
    28    10    12 1
    29    10    34 1
    30    11    35 1
    31    12    13 1
    32    12    14 1
    33    12    15 1
    34    15    16 1
    35    15    17 1
    36    36     1 1
@<TRIPOS>SUBSTRUCTURE
     1 CFS         1 TEMP              0 ****  ****    0 ROOT
