@<TRIPOS>MOLECULE
molecule
    5     4     1     0     0
SMALL
bcc


@<TRIPOS>ATOM
      1 C1           0.0000     0.0000     0.0000 c3         1 CFT       0.611200
      2 FB1          1.3990     0.0000     0.0000 f          1 CFT      -0.234300
      3 FB2         -0.4660     0.0000     1.3190 f          1 CFT      -0.234300
      4 FB3         -0.4670     1.1420    -0.6600 f          1 CFT      -0.234300
      5 H1          -0.3610    -0.8850    -0.5100 h3         1 CFT       0.091700
@<TRIPOS>BOND
     1     1     2 1
     2     1     3 1
     3     1     4 1
     4     1     5 1
@<TRIPOS>SUBSTRUCTURE
     1 CFT         1 TEMP              0 ****  ****    0 ROOT
