@<TRIPOS>MOLECULE
CFT
    5     4     1     0     0
SMALL
bcc


@<TRIPOS>ATOM
      1 C1         -0.0100   -0.0260   -0.0150 c3        1 CFT      0.623200
      2 FB1         1.3540    0.0530    0.0320 f         1 CFT     -0.243300
      3 FB2        -0.4300    0.0420    1.2840 f         1 CFT     -0.243300
      4 FB3        -0.4290    1.1370   -0.6010 f         1 CFT     -0.243300
      5 H1         -0.3810   -0.9490   -0.5510 h3        1 CFT      0.106700
@<TRIPOS>BOND
     1    1    2 1   
     2    1    3 1   
     3    1    4 1   
     4    1    5 1   
@<TRIPOS>SUBSTRUCTURE
     1 CFT         1 TEMP              0 ****  ****    0 ROOT
