@<TRIPOS>MOLECULE
molecule
   30    30     1     0     0
SMALL
bcc


@<TRIPOS>ATOM
      1 O4A          0.0000     0.0000     0.0000 o          1 CFU      -0.822800
      2 C4'          1.2140     0.0000     0.0000 c          1 CFU       0.877800
      3 O4B          1.8880     0.0000     1.1670 o          1 CFU      -0.822800
      4 C4           1.9530    -0.0050    -1.2770 ce         1 CFU       0.132800
      5 C3           2.2450    -1.1830    -1.7760 c2         1 CFU      -0.286400
      6 C3'          1.8160    -2.3910    -0.9850 c3         1 CFU      -0.018900
      7 C2           2.9700    -1.4310    -3.0680 c3         1 CFU       0.121900
      8 S1           3.9190     0.0520    -3.5210 ss         1 CFU      -0.440200
      9 N5           2.2560     1.2370    -1.8200 nu         1 CFU      -0.808000
     10 C6           2.6950     1.3660    -3.2160 c3         1 CFU       0.349600
     11 C7           3.3340     2.7380    -3.4380 c3         1 CFU      -0.000300
     12 C8           4.4950     2.9110    -2.4920 c          1 CFU       0.577900
     13 O9           5.6060     3.0960    -2.9270 o          1 CFU      -0.522100
     14 N10          3.8120     2.8350    -4.8200 ns         1 CFU      -0.564900
     15 C11          3.9410     4.0420    -5.4040 c          1 CFU       0.664100
     16 O12          3.6640     5.0480    -4.7870 o          1 CFU      -0.625100
     17 C13          4.4340     4.1430    -6.8260 c3         1 CFU      -0.169100
     18 H3           2.0590    -3.2900    -1.5390 hc         1 CFU       0.035367
     19 H4           0.7470    -2.3500    -0.8140 hc         1 CFU       0.035367
     20 H5           2.2510    -1.6500    -3.8480 h1         1 CFU       0.056200
     21 H6           3.6460    -2.2680    -2.9460 h1         1 CFU       0.056200
     22 H7           2.1730     2.0570    -1.2510 hn         1 CFU       0.446800
     23 H9           1.8470     1.2370    -3.8790 h2         1 CFU       0.064700
     24 H10          2.6000     3.5130    -3.2550 h1         1 CFU       0.101700
     25 H11          4.3250     2.9120    -1.4220 h4         1 CFU       0.021200
     26 H12          4.0200     2.0040    -5.3380 hn         1 CFU       0.331500
     27 H13          4.6850     5.1720    -7.0490 hc         1 CFU       0.056367
     28 H14          3.6580     3.8050    -7.5020 hc         1 CFU       0.056367
     29 H15          5.3140     3.5220    -6.9480 hc         1 CFU       0.056367
     30 H2           2.3340    -2.4030    -0.0340 hc         1 CFU       0.035367
@<TRIPOS>BOND
     1     7     5 1
     2     7     8 1
     3     1     2 1
     4     5     6 1
     5     5     4 2
     6     8    10 1
     7    10     9 1
     8    10    11 1
     9     4     2 1
    10     4     9 1
    11     2     3 1
    12    11    12 1
    13    11    14 1
    14    12    13 2
    15    14    15 1
    16    16    15 2
    17    15    17 1
    18     6    18 1
    19     6    19 1
    20     7    20 1
    21     7    21 1
    22     9    22 1
    23    10    23 1
    24    11    24 1
    25    12    25 1
    26    14    26 1
    27    17    27 1
    28    17    28 1
    29    17    29 1
    30     6    30 1
@<TRIPOS>SUBSTRUCTURE
     1 CFU         1 TEMP              0 ****  ****    0 ROOT
