@<TRIPOS>MOLECULE
CFU
   30    30     1     0     0
SMALL
bcc


@<TRIPOS>ATOM
      1 O4A          0.0000     0.0000     0.0000 o          1 CFU      -0.874800
      2 C4'          1.2140     0.0000     0.0000 c          1 CFU       0.972800
      3 O4B          1.8880     0.0000     1.1670 o          1 CFU      -0.874800
      4 C4           1.9530    -0.0050    -1.2770 ce         1 CFU      -0.012200
      5 C3           2.2450    -1.1830    -1.7760 c2         1 CFU      -0.299400
      6 C3'          1.8160    -2.3910    -0.9850 c3         1 CFU       0.074100
      7 C2           2.9700    -1.4310    -3.0680 c3         1 CFU       0.213900
      8 S1           3.9190     0.0520    -3.5210 ss         1 CFU      -0.483200
      9 N5           2.2560     1.2370    -1.8200 nu         1 CFU      -0.402000
     10 C6           2.6950     1.3660    -3.2160 c3         1 CFU       0.255600
     11 C7           3.3340     2.7380    -3.4380 c3         1 CFU      -0.099300
     12 C8           4.4950     2.9110    -2.4920 c          1 CFU       0.662900
     13 O9           5.6060     3.0960    -2.9270 o          1 CFU      -0.556100
     14 N10          3.8120     2.8350    -4.8200 ns         1 CFU      -0.169900
     15 C11          3.9410     4.0420    -5.4040 c          1 CFU       0.576100
     16 O12          3.6640     5.0480    -4.7870 o          1 CFU      -0.667100
     17 C13          4.4340     4.1430    -6.8260 c3         1 CFU      -0.066100
     18 H3           2.0590    -3.2900    -1.5390 hc         1 CFU       0.007033
     19 H4           0.7470    -2.3500    -0.8140 hc         1 CFU       0.007033
     20 H5           2.2510    -1.6500    -3.8480 h1         1 CFU       0.033700
     21 H6           3.6460    -2.2680    -2.9460 h1         1 CFU       0.033700
     22 H7           2.1730     2.0570    -1.2510 hn         1 CFU       0.303800
     23 H9           1.8470     1.2370    -3.8790 h2         1 CFU       0.043700
     24 H10          2.6000     3.5130    -3.2550 h1         1 CFU       0.075700
     25 H11          4.3250     2.9120    -1.4220 h4         1 CFU      -0.014800
     26 H12          4.0200     2.0040    -5.3380 hn         1 CFU       0.195500
     27 H13          4.6850     5.1720    -7.0490 hc         1 CFU       0.018700
     28 H14          3.6580     3.8050    -7.5020 hc         1 CFU       0.018700
     29 H15          5.3140     3.5220    -6.9480 hc         1 CFU       0.018700
     30 H2           2.3340    -2.4030    -0.0340 hc         1 CFU       0.007033
@<TRIPOS>BOND
     1     1     2 1   
     2     2     3 1   
     3     2     4 1   
     4     4     5 2   
     5     4     9 1   
     6     5     6 1   
     7     5     7 1   
     8     6    18 1   
     9     6    19 1   
    10     6    30 1   
    11     7     8 1   
    12     7    20 1   
    13     7    21 1   
    14     8    10 1   
    15     9    10 1   
    16     9    22 1   
    17    10    11 1   
    18    10    23 1   
    19    11    12 1   
    20    11    14 1   
    21    11    24 1   
    22    12    13 2   
    23    12    25 1   
    24    14    15 1   
    25    14    26 1   
    26    15    16 2   
    27    15    17 1   
    28    17    27 1   
    29    17    28 1   
    30    17    29 1   
@<TRIPOS>SUBSTRUCTURE
     1 CFU         1 TEMP              0 ****  ****    0 ROOT
