@<TRIPOS>MOLECULE
CFV
   31    31     1     0     0
SMALL
bcc


@<TRIPOS>ATOM
      1 OAN          0.0000     0.0000     0.0000 o          1 CFV      -0.666500
      2 PAM          1.6100     0.0000     0.0000 p5         1 CFV       0.484700
      3 OAO          2.1460     0.0000     1.5180 o          1 CFV      -0.666500
      4 OAP          2.1040     1.2070    -0.6970 o          1 CFV      -0.666500
      5 CAL          2.2180    -1.4890    -0.8580 c3         1 CFV       0.152200
      6 OAK          3.6470    -1.4900    -0.8580 os         1 CFV      -0.363600
      7 CAJ          4.2270    -1.8280     0.4030 c3         1 CFV       0.097100
      8 CAQ          4.4340    -3.3420     0.4810 c3         1 CFV       0.197400
      9 OAR          5.3960    -3.7410    -0.4960 oh         1 CFV      -0.585800
     10 CAA          5.5770    -1.1200     0.5500 c3         1 CFV       0.012000
     11 NAB          5.3660     0.3280     0.5950 n          1 CFV       0.150000
     12 CAC          5.1680     0.9470     1.7940 cc         1 CFV      -0.010400
     13 CAD          4.9750     2.2870     1.8230 cd         1 CFV      -0.335600
     14 CAE          4.9830     3.0050     0.6090 cd         1 CFV       0.154500
     15 NAF          4.7890     4.3670     0.6100 nz         1 CFV       0.247400
     16 NAG          5.1790     2.3590    -0.5330 nc         1 CFV      -0.529100
     17 CAH          5.3740     1.0420    -0.5450 c          1 CFV       0.719900
     18 OAI          5.5580     0.4720    -1.6080 o          1 CFV      -0.654500
     19 HAL          1.8570    -2.3730    -0.3470 h1         1 CFV      -0.000300
     20 HALA         1.8570    -1.4900    -1.8790 h1         1 CFV      -0.000300
     21 HAJ          3.5660    -1.5130     1.2010 h1         1 CFV       0.112700
     22 HAQ          3.4940    -3.8450     0.2900 h1         1 CFV      -0.018800
     23 HAQA         4.7920    -3.6070     1.4690 h1         1 CFV      -0.018800
     24 HOAR         5.5330    -4.6720    -0.4400 ho         1 CFV       0.361000
     25 HAA          6.2080    -1.3670    -0.2950 h1         1 CFV       0.033200
     26 HAAA         6.0560    -1.4440     1.4660 h1         1 CFV       0.033200
     27 HAC          5.3260     0.4030     2.7170 h4         1 CFV       0.119000
     28 HAD          5.0010     2.8180     2.7670 ha         1 CFV       0.100000
     29 HNAF         3.9690     4.5870     1.1390 hn         1 CFV       0.181133
     30 HNAA         5.5820     4.8170     1.0230 hn         1 CFV       0.181133
     31 HAF3         4.6760     4.6880    -0.3310 hn         1 CFV       0.181133
@<TRIPOS>BOND
     1     1     2 1   
     2     2     3 1   
     3     2     4 1   
     4     2     5 1   
     5     5     6 1   
     6     5    19 1   
     7     5    20 1   
     8     6     7 1   
     9     7     8 1   
    10     7    10 1   
    11     7    21 1   
    12     8     9 1   
    13     8    22 1   
    14     8    23 1   
    15     9    24 1   
    16    10    11 1   
    17    10    25 1   
    18    10    26 1   
    19    11    12 1   
    20    11    17 1   
    21    12    13 2   
    22    12    27 1   
    23    13    14 1   
    24    13    28 1   
    25    14    15 1   
    26    14    16 2   
    27    15    29 1   
    28    15    30 1   
    29    15    31 1   
    30    16    17 1   
    31    17    18 2   
@<TRIPOS>SUBSTRUCTURE
     1 CFV         1 TEMP              0 ****  ****    0 ROOT
