@<TRIPOS>MOLECULE
molecule
   31    31     1     0     0
SMALL
bcc


@<TRIPOS>ATOM
      1 OAN          0.0000     0.0000     0.0000 o          1 CFV      -0.895833
      2 PAM          1.6100     0.0000     0.0000 p5         1 CFV       1.044700
      3 OAO          2.1460     0.0000     1.5180 o          1 CFV      -0.895833
      4 OAP          2.1040     1.2070    -0.6970 o          1 CFV      -0.895833
      5 CAL          2.2180    -1.4890    -0.8580 c3         1 CFV      -0.056800
      6 OAK          3.6470    -1.4900    -0.8580 os         1 CFV      -0.389600
      7 CAJ          4.2270    -1.8280     0.4030 c3         1 CFV       0.109100
      8 CAQ          4.4340    -3.3420     0.4810 c3         1 CFV       0.114400
      9 OAR          5.3960    -3.7410    -0.4960 oh         1 CFV      -0.607800
     10 CAA          5.5770    -1.1200     0.5500 c3         1 CFV       0.095000
     11 NAB          5.3660     0.3280     0.5950 n          1 CFV      -0.288000
     12 CAC          5.1680     0.9470     1.7940 cc         1 CFV       0.173600
     13 CAD          4.9750     2.2870     1.8230 cd         1 CFV      -0.415600
     14 CAE          4.9830     3.0050     0.6090 cd         1 CFV       0.548500
     15 NAF          4.7890     4.3670     0.6100 nz         1 CFV      -0.725600
     16 NAG          5.1790     2.3590    -0.5330 nc         1 CFV      -0.622100
     17 CAH          5.3740     1.0420    -0.5450 c          1 CFV       0.860900
     18 OAI          5.5580     0.4720    -1.6080 o          1 CFV      -0.559500
     19 HAL          1.8570    -2.3730    -0.3470 h1         1 CFV       0.033200
     20 HALA         1.8570    -1.4900    -1.8790 h1         1 CFV       0.033200
     21 HAJ          3.5660    -1.5130     1.2010 h1         1 CFV       0.137700
     22 HAQ          3.4940    -3.8450     0.2900 h1         1 CFV       0.017700
     23 HAQA         4.7920    -3.6070     1.4690 h1         1 CFV       0.017700
     24 HOAR         5.5330    -4.6720    -0.4400 ho         1 CFV       0.375000
     25 HAA          6.2080    -1.3670    -0.2950 h1         1 CFV       0.064200
     26 HAAA         6.0560    -1.4440     1.4660 h1         1 CFV       0.064200
     27 HAC          5.3260     0.4030     2.7170 h4         1 CFV       0.169000
     28 HAD          5.0010     2.8180     2.7670 ha         1 CFV       0.128000
     29 HNAF         3.9690     4.5870     1.1390 hn         1 CFV       0.455133
     30 HNAA         5.5820     4.8170     1.0230 hn         1 CFV       0.455133
     31 HAF3         4.6760     4.6880    -0.3310 hn         1 CFV       0.455133
@<TRIPOS>BOND
     1     1     2 1
     2     2     3 1
     3     2     4 1
     4     2     5 1
     5     5     6 1
     6     6     7 1
     7     7     8 1
     8     7    10 1
     9     8     9 1
    10    10    11 1
    11    11    12 1
    12    11    17 1
    13    12    13 2
    14    13    14 1
    15    14    15 1
    16    14    16 2
    17    16    17 1
    18    17    18 2
    19     5    19 1
    20     5    20 1
    21     7    21 1
    22     8    22 1
    23     8    23 1
    24     9    24 1
    25    10    25 1
    26    10    26 1
    27    12    27 1
    28    13    28 1
    29    15    29 1
    30    15    30 1
    31    31    15 1
@<TRIPOS>SUBSTRUCTURE
     1 CFV         1 TEMP              0 ****  ****    0 ROOT
