@<TRIPOS>MOLECULE
molecule
   45    47     1     0     0
SMALL
bcc


@<TRIPOS>ATOM
      1 C4           0.0000     0.0000     0.0000 c          1 CFX       0.745500
      2 O5          -0.8420     0.0830    -0.8630 o          1 CFX      -0.455500
      3 N1           1.3500     0.0000     0.0000 nj         1 CFX      -0.355000
      4 C2           1.5310     0.0000     1.4400 cy         1 CFX       0.132800
      5 S8           2.6080    -1.3810     1.8870 ss         1 CFX      -0.352200
      6 C9           4.0110    -0.7490     0.9040 c3         1 CFX       0.098900
      7 C10          3.6420    -0.3010    -0.5090 c2         1 CFX      -0.347400
      8 C11          2.3770    -0.0050    -0.8890 ce         1 CFX       0.161400
      9 C15          4.8460    -0.2480    -1.4170 c3         1 CFX       0.220600
     10 C12          2.0420     0.2640    -2.2960 c          1 CFX       0.873800
     11 O13          2.1750     1.5810    -2.5440 o          1 CFX      -0.777800
     12 O14          1.6990    -0.5870    -3.0920 o          1 CFX      -0.777800
     13 C3           0.0110    -0.2550     1.5350 cy         1 CFX       0.222200
     14 O16         -0.7990     0.7000     2.2460 os         1 CFX      -0.363600
     15 C17         -0.7720     0.4450     3.6360 c3         1 CFX       0.117700
     16 N18         -0.3000    -1.6530     1.8660 ns         1 CFX      -0.605900
     17 C19         -1.4940    -2.2310     1.5060 c          1 CFX       0.667100
     18 O21         -2.4040    -1.6820     0.8920 o          1 CFX      -0.526100
     19 C20         -1.5480    -3.6750     1.9660 c3         1 CFX      -0.086100
     20 C23         -1.6660    -4.6590     0.8330 cc         1 CFX      -0.097400
     21 S24         -0.4630    -4.6720    -0.3670 ss         1 CFX      -0.011800
     22 C25         -1.2580    -5.9410    -1.1960 cc         1 CFX      -0.127100
     23 C26         -2.4140    -6.3330    -0.5560 cd         1 CFX      -0.159000
     24 C27         -2.6490    -5.5800     0.6310 cd         1 CFX      -0.131000
     25 O30          5.7830     0.6730    -0.8980 os         1 CFX      -0.387900
     26 C31          6.9420     0.8370    -1.6150 c          1 CFX       0.564100
     27 O32          7.2050     0.2440    -2.6570 o          1 CFX      -0.412000
     28 N33          7.7700     1.7520    -1.0160 nz         1 CFX      -0.663400
     29 HC2          1.8390     0.9630     1.8300 h2         1 CFX       0.105700
     30 HC91         4.4420     0.0960     1.4280 h1         1 CFX       0.051200
     31 HC92         4.7560    -1.5310     0.8310 h1         1 CFX       0.051200
     32 H151         5.2990    -1.2300    -1.4750 h1         1 CFX       0.079700
     33 H152         4.5390     0.0680    -2.4070 h1         1 CFX       0.079700
     34 H171        -1.5800    -0.2280     3.8960 h1         1 CFX       0.034367
     35 H172         0.1750    -0.0090     3.9020 h1         1 CFX       0.034367
     36 H173        -0.8900     1.3760     4.1770 h1         1 CFX       0.034367
     37 H18          0.3740    -2.1980     2.3660 hn         1 CFX       0.335500
     38 H201        -2.4010    -3.7980     2.6230 hc         1 CFX       0.064200
     39 H202        -0.6450    -3.8960     2.5240 hc         1 CFX       0.064200
     40 H25         -0.8950    -6.3850    -2.1150 h4         1 CFX       0.168000
     41 H26         -3.0670    -7.1200    -0.9130 ha         1 CFX       0.149000
     42 H27         -3.4990    -5.7210     1.2870 ha         1 CFX       0.150000
     43 H331         7.2810     2.6180    -0.8970 hn         1 CFX       0.478467
     44 H332         8.0580     1.4070    -0.1220 hn         1 CFX       0.478467
     45 H333         8.5760     1.9010    -1.5910 hn         1 CFX       0.478467
@<TRIPOS>BOND
     1     1     2 2
     2     1     3 1
     3     1    13 1
     4     3     4 1
     5     3     8 1
     6     4     5 1
     7     4    13 1
     8     4    29 1
     9     5     6 1
    10     6     7 1
    11     6    30 1
    12     6    31 1
    13     7     8 2
    14     7     9 1
    15     8    10 1
    16     9    25 1
    17     9    32 1
    18     9    33 1
    19    10    11 1
    20    10    12 1
    21    13    14 1
    22    13    16 1
    23    14    15 1
    24    15    34 1
    25    15    35 1
    26    15    36 1
    27    16    17 1
    28    16    37 1
    29    17    18 2
    30    17    19 1
    31    19    20 1
    32    19    38 1
    33    19    39 1
    34    20    21 1
    35    20    24 2
    36    21    22 1
    37    22    23 2
    38    22    40 1
    39    23    24 1
    40    23    41 1
    41    24    42 1
    42    25    26 1
    43    26    27 2
    44    26    28 1
    45    28    43 1
    46    28    44 1
    47    45    28 1
@<TRIPOS>SUBSTRUCTURE
     1 CFX         1 TEMP              0 ****  ****    0 ROOT
