@<TRIPOS>MOLECULE
molecule
   33    34     1     0     0
SMALL
bcc


@<TRIPOS>ATOM
      1 C1           0.0000     0.0000     0.0000 ca         1 CG       -0.008000
      2 C2           1.3890     0.0000     0.0000 ca         1 CG       -0.182900
      3 C3           2.1240     0.0000     1.2070 ca         1 CG        0.014700
      4 C4           1.4820     0.0260     2.4660 ca         1 CG       -0.180900
      5 C5           2.2970     0.0840     3.7260 ce         1 CG        0.524800
      6 N6           3.6480    -0.3490     3.7640 n2         1 CG       -0.648100
      7 N7           1.6300     0.5580     4.9060 nz         1 CG       -0.801600
      8 C8           0.0820    -0.0350     2.4490 ca         1 CG       -0.078000
      9 C9          -0.6500    -0.0400     1.2370 ca         1 CG       -0.114000
     10 C10          3.5940     0.0060     0.8940 c3         1 CG       -0.032100
     11 C11          3.5940    -0.0310    -0.6230 c3         1 CG       -0.184700
     12 C12          2.3200    -0.0050    -1.1160 ce         1 CG        0.490900
     13 N13          1.8720    -0.1310    -2.4620 n2         1 CG       -0.404400
     14 N14          2.9940    -0.6660    -3.3330 nu         1 CG       -0.682300
     15 C15          2.9180    -0.7040    -4.7030 c2         1 CG        0.898100
     16 N16          3.8200    -0.0660    -5.4720 n2         1 CG       -1.000100
     17 N17          1.8870    -1.3180    -5.3130 nz         1 CG       -0.815600
     18 H11         -0.5600    -0.0040    -0.9270 ha         1 CG        0.173000
     19 HN61         4.1620    -0.3130     4.6220 hn         1 CG        0.433400
     20 HN71         1.1240     1.3940     4.6900 hn         1 CG        0.470133
     21 HN72         2.3080     0.7530     5.6170 hn         1 CG        0.470133
     22 H81         -0.4550    -0.0670     3.3890 ha         1 CG        0.129000
     23 H91         -1.7310    -0.0880     1.2680 ha         1 CG        0.177000
     24 H101         4.0770    -0.8740     1.3000 hc         1 CG        0.099200
     25 H102         4.0600     0.9140     1.2560 hc         1 CG        0.099200
     26 H111         4.0670    -0.9520    -0.9430 hc         1 CG        0.102700
     27 H112         4.1220     0.8420    -0.9880 hc         1 CG        0.102700
     28 H141         3.8240    -1.0060    -2.8900 hn         1 CG        0.481800
     29 H161         3.6740     0.8910    -5.7260 hn         1 CG        0.568400
     30 H171         1.1280    -0.6730    -5.4140 hn         1 CG        0.475467
     31 H172         1.5900    -2.0990    -4.7620 hn         1 CG        0.475467
     32 H73          1.0080    -0.1490     5.2450 hn         1 CG        0.470133
     33 H173         2.1750    -1.6330    -6.2180 hn         1 CG        0.475467
@<TRIPOS>BOND
     1     1     2 ar
     2     1     9 ar
     3     1    18 1
     4     2     3 ar
     5     2    12 1
     6     3     4 ar
     7     3    10 1
     8     4     5 1
     9     4     8 ar
    10     5     6 2
    11     5     7 1
    12     6    19 1
    13     7    20 1
    14     7    21 1
    15     8     9 ar
    16     8    22 1
    17     9    23 1
    18    10    11 1
    19    10    24 1
    20    10    25 1
    21    11    12 1
    22    11    26 1
    23    11    27 1
    24    12    13 2
    25    13    14 1
    26    14    15 1
    27    14    28 1
    28    15    16 2
    29    15    17 1
    30    16    29 1
    31    17    30 1
    32    17    31 1
    33    32     7 1
    34    33    17 1
@<TRIPOS>SUBSTRUCTURE
     1 CG          1 TEMP              0 ****  ****    0 ROOT
