@<TRIPOS>MOLECULE
CG
   33    34     1     0     0
SMALL
bcc


@<TRIPOS>ATOM
      1 C1           0.0000     0.0000     0.0000 ca         1 CG        0.033000
      2 C2           1.3890     0.0000     0.0000 ca         1 CG       -0.180900
      3 C3           2.1240     0.0000     1.2070 ca         1 CG       -0.040300
      4 C4           1.4820     0.0260     2.4660 ca         1 CG       -0.197900
      5 C5           2.2970     0.0840     3.7260 ce         1 CG        0.198800
      6 N6           3.6480    -0.3490     3.7640 n2         1 CG       -0.462100
      7 N7           1.6300     0.5580     4.9060 nz         1 CG        0.191400
      8 C8           0.0820    -0.0350     2.4490 ca         1 CG       -0.047000
      9 C9          -0.6500    -0.0400     1.2370 ca         1 CG       -0.070000
     10 C10          3.5940     0.0060     0.8940 c3         1 CG        0.029900
     11 C11          3.5940    -0.0310    -0.6230 c3         1 CG       -0.116700
     12 C12          2.3200    -0.0050    -1.1160 ce         1 CG        0.536900
     13 N13          1.8720    -0.1310    -2.4620 n2         1 CG       -0.555400
     14 N14          2.9940    -0.6660    -3.3330 nu         1 CG       -0.245300
     15 C15          2.9180    -0.7040    -4.7030 c2         1 CG        0.255100
     16 N16          3.8200    -0.0660    -5.4720 n2         1 CG       -0.477100
     17 N17          1.8870    -1.3180    -5.3130 nz         1 CG        0.127400
     18 H11         -0.5600    -0.0040    -0.9270 ha         1 CG        0.136000
     19 HN61         4.0890    -0.6910     2.9330 hn         1 CG        0.377400
     20 HN71         2.3070     0.7490     5.6180 hn         1 CG        0.225133
     21 HN72         1.1270     1.3960     4.6910 hn         1 CG        0.225133
     22 H81         -0.4550    -0.0670     3.3890 ha         1 CG        0.096000
     23 H91         -1.7310    -0.0880     1.2680 ha         1 CG        0.138000
     24 H101         4.0600     0.9140     1.2560 hc         1 CG        0.048700
     25 H102         4.0770    -0.8740     1.3000 hc         1 CG        0.048700
     26 H111         4.0670    -0.9520    -0.9430 hc         1 CG        0.070700
     27 H112         4.1220     0.8420    -0.9880 hc         1 CG        0.070700
     28 H141         3.8230    -1.0100    -2.8890 hn         1 CG        0.322800
     29 H161         3.7470    -0.1060    -6.4690 hn         1 CG        0.348400
     30 H171         1.5000    -2.0090    -4.7010 hn         1 CG        0.228800
     31 H172         2.2100    -1.7580    -6.1510 hn         1 CG        0.228800
     32 H73          0.9940    -0.1410     5.2340 hn         1 CG        0.225133
     33 H173         1.1830    -0.6430    -5.5370 hn         1 CG        0.228800
@<TRIPOS>BOND
     1     1     2 ar  
     2     1     9 ar  
     3     1    18 1   
     4     2     3 ar  
     5     2    12 1   
     6     3     4 ar  
     7     3    10 1   
     8     4     5 1   
     9     4     8 ar  
    10     5     6 2   
    11     5     7 1   
    12     6    19 1   
    13     7    20 1   
    14     7    21 1   
    15     7    32 1   
    16     8     9 ar  
    17     8    22 1   
    18     9    23 1   
    19    10    11 1   
    20    10    24 1   
    21    10    25 1   
    22    11    12 1   
    23    11    26 1   
    24    11    27 1   
    25    12    13 2   
    26    13    14 1   
    27    14    15 1   
    28    14    28 1   
    29    15    16 2   
    30    15    17 1   
    31    16    29 1   
    32    17    30 1   
    33    17    31 1   
    34    17    33 1   
@<TRIPOS>SUBSTRUCTURE
     1 CG          1 TEMP              0 ****  ****    0 ROOT
