@<TRIPOS>MOLECULE
CG3
   16    16     1     0     0
SMALL
bcc


@<TRIPOS>ATOM
      1 NBG          0.0000     0.0000     0.0000 nh         1 CG3       1.154700
      2 OBH          1.2180     0.0000     0.0000 oh         1 CG3      -0.463300
      3 OBI         -0.6080     0.0000     1.0560 o          1 CG3      -0.480000
      4 CBB         -0.6710     0.0050    -1.1590 ca         1 CG3      -0.444400
      5 CAW         -2.0840     0.0160    -1.1670 ca         1 CG3       0.327100
      6 CAX         -2.7590     0.0210    -2.3770 ca         1 CG3      -0.214000
      7 CAY         -2.0530     0.0150    -3.5640 ca         1 CG3       0.110000
      8 CAZ         -0.6640     0.0040    -3.5590 ca         1 CG3      -0.129000
      9 CBA          0.0270     0.0050    -2.3820 ca         1 CG3       0.040000
     10 OAO         -2.7720     0.0220     0.0000 oh         1 CG3      -0.434100
     11 HBA          1.1100    -0.0040    -2.3890 ha         1 CG3       0.137000
     12 HAZ         -0.1240     0.0010    -4.4980 ha         1 CG3       0.146000
     13 HAY         -2.5870     0.0160    -4.5060 ha         1 CG3       0.131000
     14 HAX         -3.8420     0.0300    -2.3920 ha         1 CG3       0.153000
     15 HAO         -3.4980    -0.5760    -0.0610 ho         1 CG3       0.448000
     16 HBO          1.5330     0.0020     0.8890 ho         1 CG3       0.518000
@<TRIPOS>BOND
     1     1     2 1   
     2     1     3 1   
     3     1     4 1   
     4     2    16 1   
     5     4     5 ar  
     6     4     9 ar  
     7     5     6 ar  
     8     5    10 1   
     9     6     7 ar  
    10     6    14 1   
    11     7     8 ar  
    12     7    13 1   
    13     8     9 ar  
    14     8    12 1   
    15     9    11 1   
    16    10    15 1   
@<TRIPOS>SUBSTRUCTURE
     1 CG3         1 TEMP              0 ****  ****    0 ROOT
