@<TRIPOS>MOLECULE
molecule
   16    16     1     0     0
SMALL
bcc


@<TRIPOS>ATOM
      1 NBG          0.0000     0.0000     0.0000 nh         1 CG3       0.406700
      2 OBH          1.2180     0.0000     0.0000 oh         1 CG3      -0.291300
      3 OBI         -0.6080     0.0000     1.0560 o          1 CG3      -0.218000
      4 CBB         -0.6710     0.0050    -1.1590 ca         1 CG3      -0.106400
      5 CAW         -2.0840     0.0160    -1.1670 ca         1 CG3       0.272100
      6 CAX         -2.7590     0.0210    -2.3770 ca         1 CG3      -0.222000
      7 CAY         -2.0530     0.0150    -3.5640 ca         1 CG3       0.046000
      8 CAZ         -0.6640     0.0040    -3.5590 ca         1 CG3      -0.147000
      9 CBA          0.0270     0.0050    -2.3820 ca         1 CG3      -0.018000
     10 OAO         -2.7720     0.0220     0.0000 oh         1 CG3      -0.451100
     11 HBA          1.1100    -0.0040    -2.3890 ha         1 CG3       0.183000
     12 HAZ         -0.1240     0.0010    -4.4980 ha         1 CG3       0.186000
     13 HAY         -2.5870     0.0160    -4.5060 ha         1 CG3       0.182000
     14 HAX         -3.8420     0.0300    -2.3920 ha         1 CG3       0.189000
     15 HAO         -3.4980    -0.5760    -0.0610 ho         1 CG3       0.472000
     16 HBO          1.5330     0.0020     0.8890 ho         1 CG3       0.518000
@<TRIPOS>BOND
     1     2     1 1
     2     1     3 1
     3     1     4 1
     4     4     9 ar
     5     4     5 ar
     6     9     8 ar
     7     8     7 ar
     8     7     6 ar
     9     6     5 ar
    10     5    10 1
    11     9    11 1
    12     8    12 1
    13     7    13 1
    14     6    14 1
    15    10    15 1
    16     2    16 1
@<TRIPOS>SUBSTRUCTURE
     1 CG3         1 TEMP              0 ****  ****    0 ROOT
