@<TRIPOS>MOLECULE
molecule
   60    64     1     0     0
SMALL
bcc


@<TRIPOS>ATOM
      1 O18          0.0000     0.0000     0.0000 o          1 CG4      -0.837300
      2 C16          1.3480     0.0000     0.0000 c          1 CG4       0.881200
      3 O17          1.9550     0.0000     1.0520 o          1 CG4      -0.837300
      4 C7           2.0860    -0.0030    -1.2770 ca         1 CG4      -0.106600
      5 C5           3.4840    -0.0040    -1.2780 ca         1 CG4      -0.091500
      6 C3           4.1690    -0.0050    -2.4710 ca         1 CG4      -0.168000
      7 C6           1.3880    -0.0090    -2.4890 ca         1 CG4      -0.091500
      8 C4           2.0800    -0.0110    -3.6790 ca         1 CG4      -0.168000
      9 C2           3.4720    -0.0060    -3.6770 ca         1 CG4       0.003600
     10 N1           4.1690    -0.0080    -4.8830 ns         1 CG4      -0.459100
     11 C8           3.6840    -0.6880    -5.9400 c          1 CG4       0.665700
     12 O9           2.6030    -1.2380    -5.8650 o          1 CG4      -0.597100
     13 C15          4.4680    -0.7670    -7.1910 ca         1 CG4      -0.142600
     14 C13          5.7140    -0.1400    -7.2780 ca         1 CG4      -0.096000
     15 C11          6.4460    -0.2140    -8.4460 ca         1 CG4      -0.144000
     16 C14          3.9680    -1.4700    -8.2850 ca         1 CG4      -0.029000
     17 C12          4.7120    -1.5390    -9.4590 ca         1 CG4      -0.154500
     18 C10          5.9520    -0.9050    -9.5350 ca         1 CG4      -0.106000
     19 C24          4.1870    -2.2860   -10.6290 cc         1 CG4       0.508800
     20 C22          4.9240    -2.3450   -11.7700 cd         1 CG4      -0.282600
     21 N23          2.9930    -2.8970   -10.5410 nc         1 CG4      -0.763000
     22 C21          2.4950    -3.5690   -11.5580 cd         1 CG4       0.758200
     23 C19          3.2270    -3.6530   -12.7710 cd         1 CG4      -0.184600
     24 N27          2.9880    -4.2410   -13.9300 nc         1 CG4      -0.306600
     25 C26          4.0120    -4.0140   -14.7540 cc         1 CG4       0.015600
     26 C25          4.9300    -3.2610   -14.1050 cd         1 CG4      -0.234100
     27 N20          4.4480    -3.0320   -12.8530 na         1 CG4       0.089700
     28 N28          1.2620    -4.1910   -11.4450 nu         1 CG4      -0.739300
     29 C33          0.5040    -4.0360   -10.2780 ca         1 CG4       0.127600
     30 C31         -0.8810    -3.9780   -10.3520 ca         1 CG4      -0.222000
     31 C29         -1.6290    -3.8250    -9.1970 ca         1 CG4       0.120100
     32 O36         -2.9860    -3.7670    -9.2670 os         1 CG4      -0.309900
     33 C37         -3.5740    -3.8720   -10.5660 c3         1 CG4       0.128700
     34 C34          1.1380    -3.9470    -9.0460 ca         1 CG4      -0.119000
     35 C32          0.3910    -3.7940    -7.8920 ca         1 CG4      -0.169000
     36 C30         -0.9900    -3.7290    -7.9640 ca         1 CG4       0.116100
     37 O35         -1.7240    -3.5780    -6.8280 os         1 CG4      -0.319900
     38 C38         -1.0030    -3.4880    -5.5970 c3         1 CG4       0.119700
     39 H2           4.0270    -0.0030    -0.3410 ha         1 CG4       0.153500
     40 H3           5.2520    -0.0040    -2.4730 ha         1 CG4       0.122000
     41 H4           0.3050    -0.0130    -2.4910 ha         1 CG4       0.153500
     42 H5           1.5410    -0.0140    -4.6180 ha         1 CG4       0.122000
     43 H6           5.0100     0.5260    -4.9750 hn         1 CG4       0.310500
     44 H7           6.1060     0.4030    -6.4270 ha         1 CG4       0.131000
     45 H8           7.4100     0.2750    -8.5090 ha         1 CG4       0.130000
     46 H9           3.0050    -1.9610    -8.2220 ha         1 CG4       0.184000
     47 H10          6.5310    -0.9590   -10.4490 ha         1 CG4       0.124000
     48 H11          5.9150    -1.9090   -11.7980 h4         1 CG4       0.166000
     49 H12          4.0940    -4.3720   -15.7740 h4         1 CG4       0.180000
     50 H13          5.8740    -2.9100   -14.5050 h4         1 CG4       0.179000
     51 H14          0.9270    -4.7750   -12.1850 hn         1 CG4       0.469800
     52 H15         -1.3780    -4.0930   -11.3080 ha         1 CG4       0.135000
     53 H16         -3.2070    -3.0690   -11.1940 h1         1 CG4       0.036367
     54 H17         -4.6510    -3.8010   -10.4810 h1         1 CG4       0.036367
     55 H18         -3.3080    -4.8250   -11.0060 h1         1 CG4       0.036367
     56 H19          2.2140    -4.0560    -8.9820 ha         1 CG4       0.162000
     57 H20          0.8850    -3.7600    -6.9290 ha         1 CG4       0.164000
     58 H21         -1.7030    -3.4040    -4.7740 h1         1 CG4       0.050700
     59 H22         -0.3620    -2.6150    -5.6170 h1         1 CG4       0.050700
     60 H23         -0.3980    -4.3770    -5.4670 h1         1 CG4       0.050700
@<TRIPOS>BOND
     1    12    11 2
     2    14    15 ar
     3    14    13 ar
     4    15    18 ar
     5    11    13 1
     6    11    10 1
     7    13    16 ar
     8    18    17 ar
     9     8     7 ar
    10     8     9 ar
    11     7     4 ar
    12     3     2 1
    13    16    17 ar
    14    10     9 1
    15    17    19 1
    16     9     6 ar
    17    33    32 1
    18     4     2 1
    19     4     5 ar
    20     2     1 1
    21    32    31 1
    22     6     5 ar
    23    19    20 2
    24    19    21 1
    25    38    37 1
    26    20    27 1
    27    21    22 2
    28    31    30 ar
    29    31    36 ar
    30    30    29 ar
    31    37    36 1
    32    27    23 1
    33    27    26 1
    34    22    23 1
    35    22    28 1
    36    36    35 ar
    37    23    24 2
    38    29    28 1
    39    29    34 ar
    40    26    25 2
    41    35    34 ar
    42    24    25 1
    43     5    39 1
    44     6    40 1
    45     7    41 1
    46     8    42 1
    47    10    43 1
    48    14    44 1
    49    15    45 1
    50    16    46 1
    51    18    47 1
    52    20    48 1
    53    25    49 1
    54    26    50 1
    55    28    51 1
    56    30    52 1
    57    33    53 1
    58    33    54 1
    59    33    55 1
    60    34    56 1
    61    35    57 1
    62    38    58 1
    63    38    59 1
    64    38    60 1
@<TRIPOS>SUBSTRUCTURE
     1 CG4         1 TEMP              0 ****  ****    0 ROOT
