@<TRIPOS>MOLECULE
CG4
   60    64     1     0     0
SMALL
bcc


@<TRIPOS>ATOM
      1 O18          0.0000     0.0000     0.0000 o          1 CG4      -0.883800
      2 C16          1.3480     0.0000     0.0000 c          1 CG4       0.972200
      3 O17          1.9550     0.0000     1.0520 o          1 CG4      -0.883800
      4 C7           2.0860    -0.0030    -1.2770 ca         1 CG4      -0.100600
      5 C5           3.4840    -0.0040    -1.2780 ca         1 CG4      -0.064500
      6 C3           4.1690    -0.0050    -2.4710 ca         1 CG4      -0.145000
      7 C6           1.3880    -0.0090    -2.4890 ca         1 CG4      -0.064500
      8 C4           2.0800    -0.0110    -3.6790 ca         1 CG4      -0.145000
      9 C2           3.4720    -0.0060    -3.6770 ca         1 CG4      -0.152400
     10 N1           4.1690    -0.0080    -4.8830 ns         1 CG4      -0.004100
     11 C8           3.6840    -0.6880    -5.9400 c          1 CG4       0.567700
     12 O9           2.6030    -1.2380    -5.8650 o          1 CG4      -0.644100
     13 C15          4.4680    -0.7670    -7.1910 ca         1 CG4      -0.151600
     14 C13          5.7140    -0.1400    -7.2780 ca         1 CG4      -0.076000
     15 C11          6.4460    -0.2140    -8.4460 ca         1 CG4      -0.119000
     16 C14          3.9680    -1.4700    -8.2850 ca         1 CG4      -0.002000
     17 C12          4.7120    -1.5390    -9.4590 ca         1 CG4      -0.173500
     18 C10          5.9520    -0.9050    -9.5350 ca         1 CG4      -0.081000
     19 C24          4.1870    -2.2860   -10.6290 cc         1 CG4       0.532800
     20 C22          4.9240    -2.3450   -11.7700 cd         1 CG4      -0.519600
     21 N23          2.9930    -2.8970   -10.5410 nc         1 CG4      -0.692000
     22 C21          2.4950    -3.5690   -11.5580 cd         1 CG4       0.573200
     23 C19          3.2270    -3.6530   -12.7710 cd         1 CG4      -0.418600
     24 N27          2.9880    -4.2410   -13.9300 nc         1 CG4      -0.240600
     25 C26          4.0120    -4.0140   -14.7540 cc         1 CG4       0.033600
     26 C25          4.9300    -3.2610   -14.1050 cd         1 CG4      -0.447100
     27 N20          4.4480    -3.0320   -12.8530 na         1 CG4       0.700700
     28 N28          1.2620    -4.1910   -11.4450 nu         1 CG4      -0.244300
     29 C33          0.5040    -4.0360   -10.2780 ca         1 CG4      -0.041400
     30 C31         -0.8810    -3.9780   -10.3520 ca         1 CG4      -0.206000
     31 C29         -1.6290    -3.8250    -9.1970 ca         1 CG4       0.122100
     32 O36         -2.9860    -3.7670    -9.2670 os         1 CG4      -0.289900
     33 C37         -3.5740    -3.8720   -10.5660 c3         1 CG4       0.240700
     34 C34          1.1380    -3.9470    -9.0460 ca         1 CG4      -0.094000
     35 C32          0.3910    -3.7940    -7.8920 ca         1 CG4      -0.154000
     36 C30         -0.9900    -3.7290    -7.9640 ca         1 CG4       0.125100
     37 O35         -1.7240    -3.5780    -6.8280 os         1 CG4      -0.298900
     38 C38         -1.0030    -3.4880    -5.5970 c3         1 CG4       0.229700
     39 H2           4.0270    -0.0030    -0.3410 ha         1 CG4       0.126500
     40 H3           5.2520    -0.0040    -2.4730 ha         1 CG4       0.105500
     41 H4           0.3050    -0.0130    -2.4910 ha         1 CG4       0.126500
     42 H5           1.5410    -0.0140    -4.6180 ha         1 CG4       0.105500
     43 H6           5.0100     0.5260    -4.9750 hn         1 CG4       0.156500
     44 H7           6.1060     0.4030    -6.4270 ha         1 CG4       0.105000
     45 H8           7.4100     0.2750    -8.5090 ha         1 CG4       0.102000
     46 H9           3.0050    -1.9610    -8.2220 ha         1 CG4       0.154000
     47 H10          6.5310    -0.9590   -10.4490 ha         1 CG4       0.102000
     48 H11          5.9150    -1.9090   -11.7980 h4         1 CG4       0.158000
     49 H12          4.0940    -4.3720   -15.7740 h4         1 CG4       0.137000
     50 H13          5.8740    -2.9100   -14.5050 h4         1 CG4       0.158000
     51 H14          0.9270    -4.7750   -12.1850 hn         1 CG4       0.296800
     52 H15         -1.3780    -4.0930   -11.3080 ha         1 CG4       0.120000
     53 H16         -3.2070    -3.0690   -11.1940 h1         1 CG4      -0.006967
     54 H17         -4.6510    -3.8010   -10.4810 h1         1 CG4      -0.006967
     55 H18         -3.3080    -4.8250   -11.0060 h1         1 CG4      -0.006967
     56 H19          2.2140    -4.0560    -8.9820 ha         1 CG4       0.140000
     57 H20          0.8850    -3.7600    -6.9290 ha         1 CG4       0.143000
     58 H21         -1.7030    -3.4040    -4.7740 h1         1 CG4       0.008033
     59 H22         -0.3620    -2.6150    -5.6170 h1         1 CG4       0.008033
     60 H23         -0.3980    -4.3770    -5.4670 h1         1 CG4       0.008033
@<TRIPOS>BOND
     1     1     2 1   
     2     2     3 1   
     3     2     4 1   
     4     4     5 ar  
     5     4     7 ar  
     6     5     6 ar  
     7     5    39 1   
     8     6     9 ar  
     9     6    40 1   
    10     7     8 ar  
    11     7    41 1   
    12     8     9 ar  
    13     8    42 1   
    14     9    10 1   
    15    10    11 1   
    16    10    43 1   
    17    11    12 2   
    18    11    13 1   
    19    13    14 ar  
    20    13    16 ar  
    21    14    15 ar  
    22    14    44 1   
    23    15    18 ar  
    24    15    45 1   
    25    16    17 ar  
    26    16    46 1   
    27    17    18 ar  
    28    17    19 1   
    29    18    47 1   
    30    19    20 2   
    31    19    21 1   
    32    20    27 1   
    33    20    48 1   
    34    21    22 2   
    35    22    23 1   
    36    22    28 1   
    37    23    24 2   
    38    23    27 1   
    39    24    25 1   
    40    25    26 2   
    41    25    49 1   
    42    26    27 1   
    43    26    50 1   
    44    28    29 1   
    45    28    51 1   
    46    29    30 ar  
    47    29    34 ar  
    48    30    31 ar  
    49    30    52 1   
    50    31    32 1   
    51    31    36 ar  
    52    32    33 1   
    53    33    53 1   
    54    33    54 1   
    55    33    55 1   
    56    34    35 ar  
    57    34    56 1   
    58    35    36 ar  
    59    35    57 1   
    60    36    37 1   
    61    37    38 1   
    62    38    58 1   
    63    38    59 1   
    64    38    60 1   
@<TRIPOS>SUBSTRUCTURE
     1 CG4         1 TEMP              0 ****  ****    0 ROOT
