@<TRIPOS>MOLECULE
molecule
   51    55     1     0     0
SMALL
bcc


@<TRIPOS>ATOM
      1 OAB          0.0000     0.0000     0.0000 o          1 CG7      -0.831800
      2 CAV          1.3470     0.0000     0.0000 c          1 CG7       0.885200
      3 OAC          1.9540     0.0000     1.0520 o          1 CG7      -0.831800
      4 CBD          2.0850    -0.0000    -1.2800 ca         1 CG7      -0.100600
      5 CAP          1.3980    -0.1360    -2.4860 ca         1 CG7      -0.064000
      6 CAW          3.4750     0.1420    -1.2860 ca         1 CG7      -0.037300
      7 CAA          4.2230     0.2940     0.0130 c3         1 CG7      -0.029800
      8 CAI          4.1620     0.1410    -2.4830 ca         1 CG7      -0.157000
      9 CAK          3.4800     0.0010    -3.6770 ca         1 CG7      -0.135000
     10 CAZ          2.0980    -0.1360    -3.6810 ca         1 CG7       0.039100
     11 OAU          1.4310    -0.2670    -4.8580 os         1 CG7      -0.307700
     12 CBC          0.7690     0.8100    -5.3380 cc         1 CG7       0.667100
     13 NAR          0.1320     0.8650    -6.5410 na         1 CG7      -0.272300
     14 NAT          0.6410     1.9530    -4.7120 nd         1 CG7      -0.702700
     15 CBH         -0.0800     2.8140    -5.4730 ca         1 CG7       0.628300
     16 NAS         -0.4790     4.0700    -5.2940 nb         1 CG7      -0.631000
     17 CBG         -0.4170     2.1300    -6.6560 ca         1 CG7      -0.224500
     18 CAQ         -1.1660     2.7730    -7.6320 ca         1 CG7      -0.084000
     19 CAY         -1.5550     4.0810    -7.4050 ca         1 CG7      -0.101900
     20 Cl1         -2.4930     4.9360    -8.5920 cl         1 CG7      -0.111400
     21 CBF         -1.1910     4.7080    -6.2110 cp         1 CG7       0.493800
     22 CBB         -1.6110     6.1070    -5.9640 cp         1 CG7      -0.140500
     23 CAO         -1.6840     7.0110    -7.0240 ca         1 CG7      -0.099500
     24 CAM         -2.0750     8.3110    -6.7950 ca         1 CG7      -0.120500
     25 CAN         -1.9410     6.5190    -4.6720 ca         1 CG7      -0.099500
     26 CAL         -2.3320     7.8190    -4.4420 ca         1 CG7      -0.120500
     27 CBA         -2.3980     8.7250    -5.5010 cp         1 CG7      -0.033000
     28 CBE         -2.8190    10.1240    -5.2550 cp         1 CG7      -0.055000
     29 CAJ         -2.0590    11.1810    -5.7530 ca         1 CG7      -0.086000
     30 CAG         -2.4560    12.4820    -5.5200 ca         1 CG7      -0.166000
     31 CAF         -3.6040    12.7430    -4.7920 ca         1 CG7      -0.097000
     32 CAH         -4.3640    11.7020    -4.2940 ca         1 CG7      -0.218000
     33 CAX         -3.9820    10.3900    -4.5250 ca         1 CG7       0.142100
     34 OAD         -4.7320     9.3670    -4.0410 oh         1 CG7      -0.488100
     35 H2           0.3200    -0.2430    -2.4870 ha         1 CG7       0.169000
     36 H3           4.0870    -0.5960     0.6150 hc         1 CG7       0.044367
     37 H4           5.2780     0.4330    -0.1920 hc         1 CG7       0.044367
     38 H5           3.8430     1.1550     0.5500 hc         1 CG7       0.044367
     39 H6           5.2400     0.2490    -2.4870 ha         1 CG7       0.116000
     40 H7           4.0250     0.0020    -4.6130 ha         1 CG7       0.112000
     41 H8           0.1880     0.1800    -7.2680 hn         1 CG7       0.304700
     42 H10         -1.6300     2.2000    -8.4250 ha         1 CG7       0.140000
     43 H11         -1.4330     6.6900    -8.0270 ha         1 CG7       0.153500
     44 H12         -2.1290     9.0140    -7.6170 ha         1 CG7       0.134000
     45 H13         -1.8890     5.8150    -3.8500 ha         1 CG7       0.153500
     46 H14         -2.5850     8.1390    -3.4390 ha         1 CG7       0.134000
     47 H15         -1.1600    10.9820    -6.3230 ha         1 CG7       0.141000
     48 H16         -1.8650    13.3040    -5.9080 ha         1 CG7       0.127000
     49 H17         -3.9070    13.7670    -4.6110 ha         1 CG7       0.125000
     50 H18         -5.2630    11.9120    -3.7270 ha         1 CG7       0.128000
     51 H19         -5.6190     9.6610    -3.9100 ho         1 CG7       0.418000
@<TRIPOS>BOND
     1     3     2 1
     2     7     6 1
     3     2     4 1
     4     2     1 1
     5     6     4 ar
     6     6     8 ar
     7     4     5 ar
     8     8     9 ar
     9     5    10 ar
    10     9    10 ar
    11    10    11 1
    12    11    12 1
    13    12    14 2
    14    12    13 1
    15    14    15 1
    16    13    17 1
    17    15    17 ar
    18    15    16 ar
    19    17    18 ar
    20    16    21 ar
    21    18    19 ar
    22    21    19 ar
    23    21    22 1
    24    19    20 1
    25    23    22 ar
    26    23    24 ar
    27    22    25 ar
    28    24    27 ar
    29    25    26 ar
    30    27    26 ar
    31    27    28 1
    32    34    33 1
    33    28    33 ar
    34    28    29 ar
    35    33    32 ar
    36    29    30 ar
    37    32    31 ar
    38    30    31 ar
    39     5    35 1
    40     7    36 1
    41     7    37 1
    42     7    38 1
    43     8    39 1
    44     9    40 1
    45    13    41 1
    46    18    42 1
    47    23    43 1
    48    24    44 1
    49    25    45 1
    50    26    46 1
    51    29    47 1
    52    30    48 1
    53    31    49 1
    54    32    50 1
    55    34    51 1
@<TRIPOS>SUBSTRUCTURE
     1 CG7         1 TEMP              0 ****  ****    0 ROOT
