@<TRIPOS>MOLECULE
CG8
   32    34     1     0     0
SMALL
bcc


@<TRIPOS>ATOM
      1 O1           0.0000     0.0000     0.0000 o          1 CG8      -0.380000
      2 N3           5.6850     0.0000     1.2140 nx         1 CG8      -0.010000
      3 C6           4.8360     0.0000     0.0000 c3         1 CG8      -0.068000
      4 C7           4.9030    -0.8100     2.1780 c3         1 CG8      -0.010000
      5 C10          2.2260    -0.1040    -3.8700 c2         1 CG8       0.373000
      6 C9           2.1490    -0.6260    -2.4590 c3         1 CG8      -0.362000
      7 C8           6.9890    -0.6170     0.9450 c3         1 CG8      -0.311000
      8 N2           1.0750    -0.6740     1.8140 ns         1 CG8       0.097000
      9 N1           2.2110     0.0390    -0.1060 n          1 CG8       0.143000
     10 C5           2.1640     0.5480    -1.4790 c3         1 CG8      -0.065000
     11 C4           3.4590    -0.6540     1.7590 c2         1 CG8      -0.224000
     12 C3           2.2460    -0.9070     2.4410 c2         1 CG8       0.266000
     13 C2           1.0630    -0.2050     0.5530 c2         1 CG8       0.169000
     14 C1           3.4200    -0.1840     0.4930 c2         1 CG8      -0.167000
     15 N4           3.3010    -1.4980    -2.1970 nz         1 CG8       0.823000
     16 H2           5.1200    -0.8970    -0.5370 hx         1 CG8       0.067000
     17 H3           4.9980     0.9090    -0.5670 hx         1 CG8       0.067000
     18 H4           5.2140    -1.8470     2.1310 hx         1 CG8       0.078000
     19 H5           5.0560    -0.4440     3.1860 hx         1 CG8       0.078000
     20 H6           1.2520    -1.2150    -2.3130 hx         1 CG8       0.137000
     21 H7           7.2780    -1.5340     1.4440 hx         1 CG8       0.110000
     22 H8           7.7390     0.0790     0.5870 hx         1 CG8       0.110000
     23 H9           6.1030    -0.6190     0.3220 DU         1 CG8       0.116000
     24 H10          0.2030    -0.8000     2.2890 hn         1 CG8       0.131000
     25 H11          1.4060     1.2920    -1.6960 h1         1 CG8       0.114000
     26 H12          3.1230     1.0080    -1.6870 h1         1 CG8       0.114000
     27 H13          3.2380    -1.8260    -1.2540 hn         1 CG8       0.013000
     28 H14          4.1440    -0.9650    -2.2840 hn         1 CG8       0.013000
     29 O4           1.1230     0.3690    -4.4720 o          1 CG8      -0.541000
     30 H43          3.3170    -2.2670    -2.8380 hn         1 CG8       0.013000
     31 O2           2.2590    -1.3310     3.5830 o          1 CG8      -0.356000
     32 O3           3.2800    -0.1100    -4.4610 o          1 CG8      -0.541000
@<TRIPOS>BOND
     1     1    13 1   
     2     2     3 1   
     3     2     4 1   
     4     2     7 1   
     5     2    23 1   
     6     3    14 1   
     7     3    16 1   
     8     3    17 1   
     9     4    11 1   
    10     4    18 1   
    11     4    19 1   
    12     5     6 1   
    13     5    29 1   
    14     5    32 1   
    15     6    10 1   
    16     6    15 1   
    17     6    20 1   
    18     7    21 1   
    19     7    22 1   
    20     7    23 1   
    21     8    12 1   
    22     8    13 1   
    23     8    24 1   
    24     9    10 1   
    25     9    13 1   
    26     9    14 1   
    27    10    25 1   
    28    10    26 1   
    29    11    12 1   
    30    11    14 1   
    31    12    31 1   
    32    15    27 1   
    33    15    28 1   
    34    15    30 1   
@<TRIPOS>SUBSTRUCTURE
     1 CG8         1 TEMP              0 ****  ****    0 ROOT
