@<TRIPOS>MOLECULE
molecule
   32    33     1     0     0
SMALL
bcc


@<TRIPOS>ATOM
      1 O1           0.0000     0.0000     0.0000 o          1 CG8      -0.611500
      2 N3           5.6850     0.0000     1.2140 n3         1 CG8      -0.654600
      3 C6           4.8360     0.0000     0.0000 c3         1 CG8       0.140000
      4 C7           4.9030    -0.8100     2.1780 c3         1 CG8       0.210000
      5 C10          2.2260    -0.1040    -3.8700 c          1 CG8       0.865600
      6 C9           2.1490    -0.6260    -2.4590 c3         1 CG8      -0.035500
      7 C8           6.9890    -0.6170     0.9450 c3         1 CG8      -0.069900
      8 N2           1.0750    -0.6740     1.8140 ns         1 CG8      -0.557500
      9 N1           2.2110     0.0390    -0.1060 n          1 CG8      -0.375000
     10 C5           2.1640     0.5480    -1.4790 c3         1 CG8       0.109000
     11 C4           3.4590    -0.6540     1.7590 cc         1 CG8      -0.254400
     12 C3           2.2460    -0.9070     2.4410 c          1 CG8       0.716700
     13 C2           1.0630    -0.2050     0.5530 c          1 CG8       0.801500
     14 C1           3.4200    -0.1840     0.4930 cd         1 CG8       0.000400
     15 N4           3.3010    -1.4980    -2.1970 nz         1 CG8      -0.798600
     16 H2           5.1200    -0.8970    -0.5370 h1         1 CG8       0.059700
     17 H3           4.9980     0.9090    -0.5670 h1         1 CG8       0.059700
     18 H4           5.2140    -1.8470     2.1310 h1         1 CG8       0.076200
     19 H5           5.0560    -0.4440     3.1860 h1         1 CG8       0.076200
     20 H6           1.2520    -1.2150    -2.3130 hx         1 CG8       0.119700
     21 H7           7.2780    -1.5340     1.4440 h1         1 CG8       0.109700
     22 H8           7.7390     0.0790     0.5870 h1         1 CG8       0.109700
     23 H9           6.1030    -0.6190     0.3220 h1         1 CG8       0.109700
     24 H10          0.2030    -0.8000     2.2890 hn         1 CG8       0.377500
     25 H11          1.4060     1.2920    -1.6960 h1         1 CG8       0.108200
     26 H12          3.1230     1.0080    -1.6870 h1         1 CG8       0.108200
     27 H13          3.2380    -1.8260    -1.2540 hn         1 CG8       0.440467
     28 H14          4.1440    -0.9650    -2.2840 hn         1 CG8       0.440467
     29 O4           1.1230     0.3690    -4.4720 o          1 CG8      -0.763300
     30 H43          3.3170    -2.2670    -2.8380 hn         1 CG8       0.440467
     31 O2           2.2590    -1.3310     3.5830 o          1 CG8      -0.594500
     32 O3           3.2800    -0.1100    -4.4610 o          1 CG8      -0.763300
@<TRIPOS>BOND
     1     1    13 2
     2    13     8 1
     3    13     9 1
     4     8    12 1
     5    29     5 1
     6    31    12 2
     7    12    11 1
     8     9    10 1
     9     9    14 1
    10    10     6 1
    11     5     6 1
    12     5    32 1
    13     6    15 1
    14    14    11 2
    15    14     3 1
    16    11     4 1
    17     3     2 1
    18     4     2 1
    19     2     7 1
    20     3    16 1
    21     3    17 1
    22     4    18 1
    23     4    19 1
    24     6    20 1
    25     7    21 1
    26     7    22 1
    27     7    23 1
    28     8    24 1
    29    10    25 1
    30    10    26 1
    31    15    27 1
    32    15    28 1
    33    30    15 1
@<TRIPOS>SUBSTRUCTURE
     1 CG8         1 TEMP              0 ****  ****    0 ROOT
