@<TRIPOS>MOLECULE
CG9
   52    57     1     0     0
SMALL
bcc


@<TRIPOS>ATOM
      1 C01          0.0000     0.0000     0.0000 c3         1 CG9       0.213400
      2 C02          1.5310     0.0000     0.0000 c3         1 CG9       0.093800
      3 N03          2.0170     0.0000     1.3870 nh         1 CG9      -0.360000
      4 C04          1.5130     1.1730     2.1160 c3         1 CG9       0.093800
      5 C05         -0.0190     1.1610     2.0950 c3         1 CG9       0.213400
      6 O06         -0.4720     1.1290     0.7400 os         1 CG9      -0.409600
      7 C07          3.4150    -0.0550     1.4290 ca         1 CG9       0.009600
      8 C08          4.1440    -0.0930     0.2480 ca         1 CG9      -0.130000
      9 C09          5.5230    -0.1470     0.2900 ca         1 CG9      -0.090500
     10 C10          6.1810    -0.1630     1.5130 ca         1 CG9      -0.037400
     11 N11          7.5790    -0.2170     1.5550 nu         1 CG9      -0.255300
     12 C12          8.2150    -0.8900     2.5860 cc         1 CG9       0.574200
     13 N13          7.5110    -1.5700     3.4660 nd         1 CG9      -0.701000
     14 C14          8.1080    -2.2310     4.4740 cd         1 CG9       0.513800
     15 C15          9.4590    -2.2180     4.6190 cc         1 CG9      -0.491600
     16 N16         10.2320    -1.5240     3.7290 na         1 CG9       0.691700
     17 C17         11.5730    -1.3240     3.6080 cc         1 CG9      -0.438100
     18 C18         11.7630    -0.5400     2.5190 cd         1 CG9       0.043600
     19 N19         10.5740    -0.2640     1.9840 nd         1 CG9      -0.234600
     20 C20          9.6290    -0.8540     2.6950 cc         1 CG9      -0.418600
     21 C21          7.2770    -2.9860     5.4440 ca         1 CG9      -0.116500
     22 C22          7.8890    -3.6710     6.5010 ca         1 CG9      -0.140000
     23 C23          7.1410    -4.3680     7.3990 ca         1 CG9      -0.017000
     24 C24          5.7460    -4.4040     7.2720 ca         1 CG9      -0.259900
     25 C25          4.7160    -5.0220     8.0210 cc         1 CG9       0.434800
     26 N26          3.5720    -4.7380     7.4710 nd         1 CG9      -0.638100
     27 N27          3.7740    -3.9300     6.3460 na         1 CG9       0.423900
     28 C28          5.1230    -3.7160     6.2130 ca         1 CG9      -0.194200
     29 C29          5.8960    -3.0040     5.3040 ca         1 CG9      -0.078000
     30 C30          5.4510    -0.1230     2.6940 ca         1 CG9      -0.090500
     31 C31          4.0720    -0.0650     2.6520 ca         1 CG9      -0.130000
     32 H1          -0.3600     0.0610    -1.0200 h1         1 CG9       0.013950
     33 H2          -0.3600    -0.9110     0.4630 h1         1 CG9       0.013950
     34 H3           1.8920     0.8860    -0.5080 h1         1 CG9       0.026450
     35 H4           1.8910    -0.8860    -0.5080 h1         1 CG9       0.026450
     36 H5           1.8610     1.1370     3.1410 h1         1 CG9       0.026450
     37 H6           1.8730     2.0760     1.6370 h1         1 CG9       0.026450
     38 H7          -0.3790     0.2820     2.6170 h1         1 CG9       0.013950
     39 H8          -0.3930     2.0540     2.5800 h1         1 CG9       0.013950
     40 H9           3.6310    -0.0810    -0.7060 ha         1 CG9       0.118000
     41 H10          6.0920    -0.1770    -0.6310 ha         1 CG9       0.123000
     42 H11          8.1190     0.2540     0.8560 hn         1 CG9       0.303800
     43 H12          9.9220    -2.7560     5.4370 h4         1 CG9       0.161000
     44 H13         12.3430    -1.7180     4.2600 h4         1 CG9       0.162000
     45 H14         12.7210    -0.1960     2.1470 h4         1 CG9       0.142000
     46 H15          8.9670    -3.6460     6.6040 ha         1 CG9       0.110000
     47 H16          7.6250    -4.8950     8.2130 ha         1 CG9       0.102000
     48 H17          4.8570    -5.6300     8.9060 h4         1 CG9       0.012800
     49 H19          5.4350    -2.5650     4.4280 ha         1 CG9       0.133000
     50 H20          5.9640    -0.1330     3.6480 ha         1 CG9       0.123000
     51 H21          3.5030    -0.0340     3.5740 ha         1 CG9       0.118000
     52 H18          3.0590    -3.5710     5.7440 hn         1 CG9       0.155700
@<TRIPOS>BOND
     1     1     2 1   
     2     1     6 1   
     3     1    32 1   
     4     1    33 1   
     5     2     3 1   
     6     2    34 1   
     7     2    35 1   
     8     3     4 1   
     9     3     7 1   
    10     4     5 1   
    11     4    36 1   
    12     4    37 1   
    13     5     6 1   
    14     5    38 1   
    15     5    39 1   
    16     7     8 ar  
    17     7    31 ar  
    18     8     9 ar  
    19     8    40 1   
    20     9    10 ar  
    21     9    41 1   
    22    10    11 1   
    23    10    30 ar  
    24    11    12 1   
    25    11    42 1   
    26    12    13 2   
    27    12    20 1   
    28    13    14 1   
    29    14    15 2   
    30    14    21 1   
    31    15    16 1   
    32    15    43 1   
    33    16    17 1   
    34    16    20 1   
    35    17    18 2   
    36    17    44 1   
    37    18    19 1   
    38    18    45 1   
    39    19    20 2   
    40    21    22 ar  
    41    21    29 ar  
    42    22    23 ar  
    43    22    46 1   
    44    23    24 ar  
    45    23    47 1   
    46    24    25 1   
    47    24    28 ar  
    48    25    26 2   
    49    25    48 1   
    50    26    27 1   
    51    27    28 1   
    52    27    52 1   
    53    28    29 ar  
    54    29    49 1   
    55    30    31 ar  
    56    30    50 1   
    57    31    51 1   
@<TRIPOS>SUBSTRUCTURE
     1 CG9         1 TEMP              0 ****  ****    0 ROOT
