@<TRIPOS>MOLECULE
molecule
   25    26     1     0     0
SMALL
bcc


@<TRIPOS>ATOM
      1 O2           1.4290     0.0000     0.0000 oh         1 CGB      -0.579800
      2 C2           0.0000     0.0000     0.0000 c3         1 CGB       0.355000
      3 N1          -0.5620     0.0000     1.3760 n7         1 CGB      -0.825200
      4 C8          -0.5850    -1.2660    -0.6660 c3         1 CGB      -0.105400
      5 C7          -1.8990    -1.5410     0.0950 c3         1 CGB      -0.117400
      6 C6          -1.9800    -0.4000     1.1740 c3         1 CGB       0.138500
      7 C3          -0.5780     1.2250    -0.7280 c3         1 CGB       0.136100
      8 O3           0.0010     1.3270    -2.0300 oh         1 CGB      -0.592800
      9 C4          -2.0950     1.0560    -0.8530 c3         1 CGB       0.130100
     10 O4          -2.6610     2.2470    -1.4040 oh         1 CGB      -0.605800
     11 C5          -2.7020     0.7930     0.5280 c3         1 CGB       0.143100
     12 O5          -4.0920     0.4950     0.3910 oh         1 CGB      -0.604800
     13 HO           1.7430     0.4800     0.7480 ho         1 CGB       0.413000
     14 H1          -0.0960    -0.6930     1.9270 hn         1 CGB       0.362800
     15 H8C1         0.0970    -2.1000    -0.5540 hc         1 CGB       0.068700
     16 H8C2        -0.7880    -1.0820    -1.7140 hc         1 CGB       0.068700
     17 H7C1        -2.7450    -1.4850    -0.5790 hc         1 CGB       0.059200
     18 H7C2        -1.8610    -2.5120     0.5750 hc         1 CGB       0.059200
     19 H6          -2.4540    -0.7280     2.0910 h1         1 CGB       0.082700
     20 H3          -0.3580     2.1210    -0.1620 h1         1 CGB       0.057700
     21 HA           0.4120     2.1710    -2.1260 ho         1 CGB       0.411000
     22 H4          -2.3120     0.2190    -1.5060 h1         1 CGB       0.062700
     23 HB          -3.1160     2.0380    -2.2030 ho         1 CGB       0.413000
     24 H5          -2.5790     1.6710     1.1510 h1         1 CGB       0.059700
     25 HC          -4.5900     1.0410     0.9760 ho         1 CGB       0.410000
@<TRIPOS>BOND
     1     1     2 1
     2     1    13 1
     3     2     3 1
     4     2     4 1
     5     2     7 1
     6     3     6 1
     7     3    14 1
     8     4     5 1
     9     4    15 1
    10     4    16 1
    11     5     6 1
    12     5    17 1
    13     5    18 1
    14     6    11 1
    15     6    19 1
    16     7     8 1
    17     7     9 1
    18     7    20 1
    19     8    21 1
    20     9    10 1
    21     9    11 1
    22     9    22 1
    23    10    23 1
    24    11    12 1
    25    11    24 1
    26    12    25 1
@<TRIPOS>SUBSTRUCTURE
     1 CGB         1 TEMP              0 ****  ****    0 ROOT
