@<TRIPOS>MOLECULE
molecule
   43    44     1     0     0
SMALL
bcc


@<TRIPOS>ATOM
      1 C1           0.0000     0.0000     0.0000 c3         1 CGC       0.337900
      2 O1          -0.4760     0.0550    -1.3460 os         1 CGC      -0.401600
      3 C2           1.5310     0.0000     0.0000 c3         1 CGC       0.114100
      4 C3           2.0330     0.0000     1.4470 c3         1 CGC       0.114100
      5 O2           2.0090    -1.1670    -0.6730 oh         1 CGC      -0.595800
      6 O5          -0.4750     1.1380     0.7210 os         1 CGC      -0.410600
      7 C5          -0.0760     1.1680     2.0930 c3         1 CGC       0.157100
      8 C4           1.4520     1.2150     2.1780 c3         1 CGC       0.100100
      9 O4           1.8550     1.1870     3.5480 oh         1 CGC      -0.608800
     10 O3           3.4610     0.0750     1.4580 oh         1 CGC      -0.610800
     11 C6          -0.6620     2.4090     2.7680 c3         1 CGC       0.152400
     12 O6          -2.0880     2.3090     2.7920 oh         1 CGC      -0.585800
     13 O61         -4.4740    -1.1090    -0.6650 oh         1 CGC      -0.610800
     14 C61         -3.8020    -1.6260    -1.8150 c3         1 CGC       0.305900
     15 C51         -2.2880    -1.5260    -1.6100 c3         1 CGC       0.098100
     16 O51         -1.9190    -2.2360    -0.4250 oh         1 CGC      -0.606800
     17 C41         -1.8960    -0.0530    -1.4650 c3         1 CGC       0.120100
     18 C31         -2.3660     0.7130    -2.7060 c3         1 CGC       0.149100
     19 O31         -2.0700     2.1020    -2.5510 oh         1 CGC      -0.558800
     20 C21         -3.8770     0.5270    -2.8700 c3         1 CGC       0.030100
     21 O21         -4.1760    -0.8670    -2.9670 os         1 CGC      -0.395600
     22 C11         -4.3370     1.2280    -4.1220 c          1 CGC       0.900600
     23 O1A         -4.7850     0.5880    -5.0430 o          1 CGC      -0.824800
     24 O1B         -4.2490     2.5650    -4.2130 o          1 CGC      -0.824800
     25 H1          -0.3590    -0.9030     0.4780 h2         1 CGC       0.064700
     26 H2           1.8910     0.8880    -0.5060 h1         1 CGC       0.062700
     27 H3           1.7090    -0.9080     1.9420 h1         1 CGC       0.058700
     28 H4           2.6160    -0.9150    -1.3480 ho         1 CGC       0.408000
     29 H5          -0.4360     0.2760     2.5910 h1         1 CGC       0.061700
     30 H6           1.8110     2.1230     1.7090 h1         1 CGC       0.056700
     31 H7           2.5360     1.8240     3.6890 ho         1 CGC       0.406000
     32 H8           3.8120    -0.6850     1.8900 ho         1 CGC       0.407000
     33 H9          -0.3720     3.2930     2.2140 h1         1 CGC       0.029700
     34 H10         -0.2890     2.4790     3.7830 h1         1 CGC       0.029700
     35 H11         -2.4400     2.9670     3.3690 ho         1 CGC       0.395000
     36 H12         -5.2380    -1.6320    -0.4860 ho         1 CGC       0.395000
     37 H13         -4.0760    -2.6630    -1.9630 h2         1 CGC       0.041700
     38 H14         -1.7800    -1.9510    -2.4660 h1         1 CGC       0.052700
     39 H15         -1.7960    -3.1480    -0.6310 ho         1 CGC       0.388000
     40 H16         -2.3710     0.3620    -0.5840 h1         1 CGC       0.098700
     41 H17         -1.8590     0.3260    -3.5820 h1         1 CGC       0.040700
     42 H18         -1.3870     2.3470    -3.1530 ho         1 CGC       0.395000
     43 H19         -4.3850     0.9450    -2.0090 h1         1 CGC       0.064700
@<TRIPOS>BOND
     1    16    15 1
     2     5     3 1
     3    14    13 1
     4    14    15 1
     5    14    21 1
     6    10     4 1
     7    15    17 1
     8    21    20 1
     9     4     3 1
    10     4     8 1
    11     3     1 1
    12    17     2 1
    13    17    18 1
    14     1     2 1
    15     1     6 1
    16    20    18 1
    17    20    22 1
    18     9     8 1
    19    23    22 1
    20     8     7 1
    21    18    19 1
    22    22    24 1
    23     7     6 1
    24     7    11 1
    25    11    12 1
    26     1    25 1
    27     3    26 1
    28     4    27 1
    29     5    28 1
    30     7    29 1
    31     8    30 1
    32     9    31 1
    33    10    32 1
    34    11    33 1
    35    11    34 1
    36    12    35 1
    37    13    36 1
    38    14    37 1
    39    15    38 1
    40    16    39 1
    41    17    40 1
    42    18    41 1
    43    19    42 1
    44    20    43 1
@<TRIPOS>SUBSTRUCTURE
     1 CGC         1 TEMP              0 ****  ****    0 ROOT
