@<TRIPOS>MOLECULE
CGC
   43    44     1     0     0
SMALL
bcc


@<TRIPOS>ATOM
      1 C1          0.0010    0.0150    0.1790 c3        1 CGC      0.298900
      2 O1         -0.5110    0.2590   -1.1070 os        1 CGC     -0.406600
      3 C2          1.5370    0.0870    0.0580 c3        1 CGC      0.087100
      4 C3          2.1460    0.0790    1.4650 c3        1 CGC      0.107100
      5 O2          2.0480   -1.0470   -0.6210 oh        1 CGC     -0.615800
      6 O5         -0.4920    1.1110    0.9460 os        1 CGC     -0.433600
      7 C5          0.0070    1.1240    2.2820 c3        1 CGC      0.108100
      8 C4          1.5400    1.2300    2.2870 c3        1 CGC      0.118100
      9 O4          1.9650    1.1520    3.6380 oh        1 CGC     -0.601800
     10 O3          3.5470    0.2970    1.4270 oh        1 CGC     -0.616800
     11 C6         -0.6230    2.3530    2.9450 c3        1 CGC      0.144400
     12 O6         -2.0260    2.2320    3.0170 oh        1 CGC     -0.605800
     13 O61        -4.6000   -1.5930   -1.1160 oh        1 CGC     -0.667800
     14 C61        -3.5390   -1.7850   -2.0350 c3        1 CGC      0.306900
     15 C51        -2.2120   -1.4510   -1.3300 c3        1 CGC      0.090100
     16 O51        -2.1870   -2.0400   -0.0410 oh        1 CGC     -0.616800
     17 C41        -1.9280    0.0580   -1.2460 c3        1 CGC      0.116100
     18 C31        -2.3130    0.7830   -2.5490 c3        1 CGC      0.155100
     19 O31        -2.2430    2.1700   -2.2710 oh        1 CGC     -0.626800
     20 C21        -3.7330    0.3930   -2.9720 c3        1 CGC     -0.036900
     21 O21        -3.8190   -1.0180   -3.1740 os        1 CGC     -0.397600
     22 C11        -4.1620    1.0710   -4.3150 c         1 CGC      0.937600
     23 O1A        -5.2770    0.7580   -4.7940 o         1 CGC     -0.815800
     24 O1B        -3.3670    1.9340   -4.7850 o         1 CGC     -0.815800
     25 H1         -0.3480   -0.9640    0.6100 h2        1 CGC      0.078700
     26 H2          1.8310    1.0230   -0.4940 h1        1 CGC      0.077700
     27 H3          1.9420   -0.9080    1.9670 h1        1 CGC      0.060700
     28 H4          1.5560   -1.1100   -1.4510 ho        1 CGC      0.431000
     29 H5         -0.3130    0.1870    2.8150 h1        1 CGC      0.063700
     30 H6          1.8650    2.2130    1.8450 h1        1 CGC      0.061700
     31 H7          2.9290    1.0980    3.6140 ho        1 CGC      0.418000
     32 H8          3.9010   -0.3100    0.7640 ho        1 CGC      0.425000
     33 H9         -0.2690    2.4210    4.0080 h1        1 CGC      0.056700
     34 H10        -0.3400    3.2790    2.3780 h1        1 CGC      0.056700
     35 H11        -2.3470    2.1300    2.1100 ho        1 CGC      0.422000
     36 H12        -5.3750   -1.3140   -1.6230 ho        1 CGC      0.440000
     37 H13        -3.5370   -2.8580   -2.3850 h2        1 CGC      0.065700
     38 H14        -1.3720   -1.9530   -1.8890 h1        1 CGC      0.080700
     39 H15        -2.9950   -1.7700    0.4150 ho        1 CGC      0.421000
     40 H16        -2.4650    0.5150   -0.3720 h1        1 CGC      0.074700
     41 H17        -1.5860    0.5200   -3.3650 h1        1 CGC      0.060700
     42 H18        -2.4790    2.6200   -3.1020 ho        1 CGC      0.453000
     43 H19        -4.4620    0.7040   -2.1750 h1        1 CGC      0.038700
@<TRIPOS>BOND
     1    1    2 1   
     2    1    3 1   
     3    1    6 1   
     4    1   25 1   
     5    2   17 1   
     6    3    4 1   
     7    3    5 1   
     8    3   26 1   
     9    4    8 1   
    10    4   10 1   
    11    4   27 1   
    12    5   28 1   
    13    6    7 1   
    14    7    8 1   
    15    7   11 1   
    16    7   29 1   
    17    8    9 1   
    18    8   30 1   
    19    9   31 1   
    20   10   32 1   
    21   11   12 1   
    22   11   33 1   
    23   11   34 1   
    24   12   35 1   
    25   13   14 1   
    26   13   36 1   
    27   14   15 1   
    28   14   21 1   
    29   14   37 1   
    30   15   16 1   
    31   15   17 1   
    32   15   38 1   
    33   16   39 1   
    34   17   18 1   
    35   17   40 1   
    36   18   19 1   
    37   18   20 1   
    38   18   41 1   
    39   19   42 1   
    40   20   21 1   
    41   20   22 1   
    42   20   43 1   
    43   22   23 1   
    44   22   24 1   
@<TRIPOS>SUBSTRUCTURE
     1 CGC         1 TEMP              0 ****  ****    0 ROOT
