@<TRIPOS>MOLECULE
molecule
   15    16     1     0     0
SMALL
bcc


@<TRIPOS>ATOM
      1 C4           0.0000     0.0000     0.0000 ca         1 CGD      -0.117000
      2 C5           1.3770     0.0000     0.0000 ca         1 CGD      -0.088000
      3 C6           2.0770     0.0000     1.2030 ca         1 CGD      -0.037100
      4 C3          -0.6940     0.0000     1.2010 ca         1 CGD      -0.126000
      5 C2          -0.0200     0.0000     2.3960 ca         1 CGD      -0.072000
      6 C1           1.3900     0.0000     2.4220 ca         1 CGD       0.131400
      7 C            3.4830    -0.0000     3.2690 cc         1 CGD       0.618500
      8 S            3.8070    -0.0000     1.5410 ss         1 CGD      -0.181100
      9 N            2.2160    -0.0000     3.4880 nd         1 CGD      -0.590100
     10 H3          -0.5410    -0.0000    -0.9380 ha         1 CGD       0.138000
     11 H4           1.9170    -0.0000    -0.9390 ha         1 CGD       0.139000
     12 H2          -1.7780     0.0000     1.1950 ha         1 CGD       0.139000
     13 H1          -0.5740    -0.0000     3.3270 ha         1 CGD       0.149000
     14 H            4.8930     0.8230     4.2200 ho         1 CGD       0.438000
     15 O            4.4330    -0.0000     4.2320 oh         1 CGD      -0.540600
@<TRIPOS>BOND
     1     1     4 ar
     2     1     2 ar
     3     4     5 ar
     4     2     3 ar
     5     5     6 ar
     6     3     6 ar
     7     3     8 1
     8     6     9 1
     9     8     7 1
    10     9     7 2
    11     7    15 1
    12     1    10 1
    13     2    11 1
    14     4    12 1
    15     5    13 1
    16    15    14 1
@<TRIPOS>SUBSTRUCTURE
     1 CGD         1 TEMP              0 ****  ****    0 ROOT
