@<TRIPOS>MOLECULE
molecule
   37    39     1     0     0
SMALL
bcc


@<TRIPOS>ATOM
      1 C            0.0000     0.0000     0.0000 c          1 CGE       0.626100
      2 N            1.9970     1.2000    -0.6920 n3         1 CGE      -0.715600
      3 O           -0.6050     1.0460    -0.0140 o          1 CGE      -0.492000
      4 Cl1          1.3370    -2.8450     2.0480 cl         1 CGE      -0.098400
      5 CA           1.5060     0.0000     0.0000 c3         1 CGE       0.172800
      6 CAA         -2.0500    -1.0390     0.4660 c3         1 CGE       0.127700
      7 CAD          2.9300    -0.0010     4.0280 ca         1 CGE      -0.135000
      8 CAE          3.3930     0.9440     3.1320 ca         1 CGE      -0.134000
      9 CAF          2.1080     4.2020    -4.3070 cc         1 CGE      -0.065100
     10 CAG          1.8120    -0.7580     3.7210 ca         1 CGE      -0.110000
     11 CAH          2.7380     1.1330     1.9250 ca         1 CGE      -0.093000
     12 CAI          1.4390     3.1520    -3.8360 cd         1 CGE      -0.146000
     13 CAJ          3.9450     2.6180    -1.1160 c3         1 CGE       0.014900
     14 CAK          3.4650     1.2050    -0.7640 c3         1 CGE       0.124800
     15 CAL          1.3960     1.3190    -2.0280 c3         1 CGE       0.208100
     16 OAM         -0.6880    -1.2030     0.1900 os         1 CGE      -0.421900
     17 SAN          3.5430     4.4730    -3.3280 ss         1 CGE      -0.165800
     18 CAP          1.9930    -1.1870     2.1340 ca         1 CGE       0.029400
     19 CAQ          1.9980     2.5320    -2.7240 cd         1 CGE      -0.097300
     20 CAR          3.1420     3.1050    -2.3030 cc         1 CGE      -0.019400
     21 CAS          2.0090     0.0000     1.4200 ca         1 CGE      -0.059300
     22 HA           1.8670    -0.8840    -0.5110 h1         1 CGE       0.058700
     23 HAA         -2.5040    -2.0090     0.6280 h1         1 CGE       0.044700
     24 HAAA        -2.5320    -0.5500    -0.3720 h1         1 CGE       0.044700
     25 HAAB        -2.1680    -0.4320     1.3550 h1         1 CGE       0.044700
     26 HAD          3.4420    -0.1480     4.9720 ha         1 CGE       0.133000
     27 HAE          4.2670     1.5370     3.3720 ha         1 CGE       0.134000
     28 HAF          1.7970     4.8400    -5.1250 h4         1 CGE       0.172000
     29 HAG          1.4490    -1.4990     4.4240 ha         1 CGE       0.145000
     30 HAH          3.1010     1.8740     1.2230 ha         1 CGE       0.173000
     31 HAI          0.5160     2.7540    -4.2410 ha         1 CGE       0.148000
     32 HAJ          4.9530     2.5350    -1.5040 hc         1 CGE       0.058200
     33 HAJA         3.9830     3.1890    -0.1960 hc         1 CGE       0.058200
     34 HAK          3.7690     0.2990    -1.2750 h1         1 CGE       0.056200
     35 HAKA         3.8410     1.2910     0.2480 h1         1 CGE       0.056200
     36 HAL          1.3560     0.3260    -2.4580 h1         1 CGE       0.060700
     37 HALA         0.3790     1.6710    -1.8990 h1         1 CGE       0.060700
@<TRIPOS>BOND
     1     1     3 2
     2     1     5 1
     3     1    16 1
     4     2     5 1
     5     2    14 1
     6     2    15 1
     7     4    18 1
     8     5    21 1
     9     6    16 1
    10     7     8 ar
    11     7    10 ar
    12     8    11 ar
    13     9    12 2
    14     9    17 1
    15    10    18 ar
    16    11    21 ar
    17    12    19 1
    18    13    14 1
    19    13    20 1
    20    15    19 1
    21    17    20 1
    22    18    21 ar
    23    19    20 2
    24     5    22 1
    25     6    23 1
    26     6    24 1
    27     6    25 1
    28     7    26 1
    29     8    27 1
    30     9    28 1
    31    10    29 1
    32    11    30 1
    33    12    31 1
    34    13    32 1
    35    13    33 1
    36    14    34 1
    37    14    35 1
    38    15    36 1
    39    15    37 1
@<TRIPOS>SUBSTRUCTURE
     1 CGE         1 TEMP              0 ****  ****    0 ROOT
