@<TRIPOS>MOLECULE
molecule
   42    43     1     0     0
SMALL
bcc


@<TRIPOS>ATOM
      1 C1           0.0000     0.0000     0.0000 c3         1 CGG       0.052800
      2 C2           1.5290     0.0000     0.0000 c3         1 CGG      -0.064400
      3 C3           2.0390     0.0000     1.4420 c3         1 CGG       0.130100
      4 C4           1.5300    -1.2510     2.1630 c3         1 CGG       0.126100
      5 C5           0.0000    -1.2500     2.1630 c3         1 CGG       0.138100
      6 C7          -1.1520    -3.4360     4.8980 ce         1 CGG      -0.204200
      7 C8          -1.3560    -3.3360     6.2290 cf         1 CGG      -0.043200
      8 C9          -1.8440    -4.4960     6.9870 ca         1 CGG      -0.063800
      9 C10         -2.0940    -5.7080     6.3340 ca         1 CGG      -0.107000
     10 C11         -2.5520    -6.7940     7.0460 ca         1 CGG      -0.154000
     11 C12         -2.7680    -6.6900     8.4140 ca         1 CGG       0.093100
     12 O2          -0.4770     1.1660     0.6740 oh         1 CGG      -0.636800
     13 O3           3.4680     0.0000     1.4420 oh         1 CGG      -0.615800
     14 O4           2.0070    -2.4170     1.4890 oh         1 CGG      -0.581800
     15 O5          -0.4760    -2.4170     2.8360 os         1 CGG      -0.402900
     16 O6          -0.4590    -1.2660     4.7380 o          1 CGG      -0.571000
     17 O7          -3.2210    -7.7640     9.1100 oh         1 CGG      -0.514100
     18 C15         -0.5100    -1.2500     0.7210 c3         1 CGG      -0.070400
     19 C           -0.5030    -0.0000    -1.4210 c          1 CGG       0.870600
     20 O           -0.6320     1.1580    -2.0870 o          1 CGG      -0.829800
     21 C14         -2.0570    -4.3940     8.3680 ca         1 CGG      -0.136000
     22 C13         -2.5220    -5.4860     9.0740 ca         1 CGG       0.085100
     23 H1           1.8890     0.8860    -0.5090 hc         1 CGG       0.068700
     24 H2           1.8890    -0.8860    -0.5090 hc         1 CGG       0.068700
     25 H3           1.6730     0.8830     1.9520 h1         1 CGG       0.049700
     26 H4           1.8890    -1.2470     3.1850 h1         1 CGG       0.023700
     27 H5          -0.3580    -0.3630     2.6710 h1         1 CGG       0.082700
     28 H6          -1.3480    -4.3720     4.3880 ha         1 CGG       0.144000
     29 H7          -1.1590    -2.4010     6.7390 ha         1 CGG       0.159000
     30 H8          -1.9260    -5.7910     5.2670 ha         1 CGG       0.148000
     31 H9          -2.7450    -7.7320     6.5390 ha         1 CGG       0.143000
     32 H10         -1.2530     1.4830     0.2430 ho         1 CGG       0.419000
     33 H11          3.7830     0.8090     1.8100 ho         1 CGG       0.388000
     34 H12          2.6560    -2.8440     2.0220 ho         1 CGG       0.388000
     35 H13         -4.1370    -7.8920     8.9310 ho         1 CGG       0.421000
     36 H14         -1.9050    -5.3500    10.8610 ho         1 CGG       0.420000
     37 H15         -0.1470    -2.1340     0.2110 hc         1 CGG       0.068200
     38 H16         -1.5940    -1.2480     0.7230 hc         1 CGG       0.068200
     39 H18         -1.8650    -3.4590     8.8790 ha         1 CGG       0.147000
     40 C6          -0.6800    -2.3180     4.1670 c          1 CGG       0.632300
     41 O1          -0.7900    -1.0420    -1.9610 o          1 CGG      -0.829800
     42 O8          -2.7340    -5.3890    10.4130 oh         1 CGG      -0.512100
@<TRIPOS>BOND
     1    13     3 1
     2     3     2 1
     3     3     4 1
     4     2     1 1
     5    14     4 1
     6     4     5 1
     7    41    19 1
     8     1    12 1
     9     1    19 1
    10     1    18 1
    11    19    20 1
    12     5    18 1
    13     5    15 1
    14    15    40 1
    15    40    16 2
    16    40     6 1
    17     6     7 2
    18     7     8 1
    19     9     8 ar
    20     9    10 ar
    21     8    21 ar
    22    10    11 ar
    23    21    22 ar
    24    11    22 ar
    25    11    17 1
    26    22    42 1
    27     2    23 1
    28     2    24 1
    29     3    25 1
    30     4    26 1
    31     5    27 1
    32     6    28 1
    33     7    29 1
    34     9    30 1
    35    10    31 1
    36    12    32 1
    37    13    33 1
    38    14    34 1
    39    17    35 1
    40    42    36 1
    41    18    37 1
    42    18    38 1
    43    21    39 1
@<TRIPOS>SUBSTRUCTURE
     1 CGG         1 TEMP              0 ****  ****    0 ROOT
