@<TRIPOS>MOLECULE
molecule
   26    28     1     0     0
SMALL
bcc


@<TRIPOS>ATOM
      1 C4           0.0000     0.0000     0.0000 c3         1 CGJ       0.175700
      2 C5           1.4990     0.0000     0.0000 ca         1 CGJ      -0.130300
      3 C6           2.2220     0.0000     1.1740 ca         1 CGJ      -0.093000
      4 N1          -0.1410     0.9260    -3.6250 nc         1 CGJ      -0.325000
      5 C7           3.6030    -0.0660     1.1330 ca         1 CGJ      -0.125000
      6 C8           4.2650    -0.1320    -0.0790 ca         1 CGJ      -0.108000
      7 N2           1.3930     0.1090    -2.3800 na         1 CGJ      -0.249800
      8 C9           3.5480    -0.1020    -1.2610 ca         1 CGJ      -0.125000
      9 C10          2.1710    -0.0200    -1.2220 ca         1 CGJ      -0.003200
     10 C1           1.3990    -0.5440    -3.5550 cc         1 CGJ       0.380800
     11 C2           0.4010     1.0430    -2.4510 cd         1 CGJ       0.315800
     12 N            0.4470    -0.0130    -4.2850 nd         1 CGJ      -0.357000
     13 O           -0.5810     1.2860    -0.2640 os         1 CGJ      -0.400600
     14 C3           0.0740     1.9890    -1.3320 c3         1 CGJ       0.122100
     15 H1          -0.3330    -0.6810    -0.7730 h1         1 CGJ       0.065200
     16 H2          -0.3330    -0.3210     0.9800 h1         1 CGJ       0.065200
     17 H3           1.7090     0.0520     2.1270 ha         1 CGJ       0.145000
     18 H4           4.1680    -0.0910     2.0570 ha         1 CGJ       0.140000
     19 H5           5.3470    -0.1840    -0.1030 ha         1 CGJ       0.142000
     20 H6           4.0630    -0.1530    -2.2130 ha         1 CGJ       0.145000
     21 H7           2.4450    -2.3480    -3.1230 hc         1 CGJ       0.060033
     22 H8           1.8940    -2.2010    -4.7980 hc         1 CGJ       0.060033
     23 H9           3.2840    -1.2610    -4.2390 hc         1 CGJ       0.060033
     24 H10          0.9890     2.4320    -0.9600 h1         1 CGJ       0.074700
     25 H11         -0.5830     2.7670    -1.7030 h1         1 CGJ       0.074700
     26 C            2.3200    -1.6680    -3.9570 c3         1 CGJ      -0.106400
@<TRIPOS>BOND
     1     6     8 ar
     2     6     5 ar
     3     8     9 ar
     4    26    10 1
     5     5     3 ar
     6     9     7 1
     7     9     2 ar
     8     3     2 ar
     9    10     7 1
    10    10    12 2
    11     7    11 1
    12     2     1 1
    13    12     4 1
    14    11     4 2
    15    11    14 1
    16     1    13 1
    17     1    15 1
    18     1    16 1
    19     3    17 1
    20     5    18 1
    21     6    19 1
    22     8    20 1
    23    26    21 1
    24    26    22 1
    25    26    23 1
    26    14    24 1
    27    14    25 1
    28    14    13 1
@<TRIPOS>SUBSTRUCTURE
     1 CGJ         1 TEMP              0 ****  ****    0 ROOT
