@<TRIPOS>MOLECULE
CGL
   48    47     1     0     0
SMALL
bcc


@<TRIPOS>ATOM
      1 N            0.0000     0.0000     0.0000 nz         1 CGL       0.014400
      2 CA           1.4690     0.0000     0.0000 c3         1 CGL      -0.123500
      3 CB           1.9790     0.0000     1.4420 c3         1 CGL      -0.064300
      4 SG           1.5050     1.5520     2.2520 ss         1 CGL      -0.135100
      5 C            1.9720    -1.2300    -0.7110 c          1 CGL       0.948600
      6 O            3.2250    -1.2630    -1.1900 o          1 CGL      -0.806800
      7 OXT          1.2460    -2.1860    -0.8500 o          1 CGL      -0.806800
      8 N1          -2.9120     6.6360     8.0060 nz         1 CGL       0.027400
      9 CA1         -1.9230     7.0450     6.9990 c3         1 CGL      -0.112500
     10 C1          -1.2250     8.2980     7.4610 c          1 CGL       0.954600
     11 O11         -0.5890     9.0780     6.5720 o          1 CGL      -0.816300
     12 O12         -1.2390     8.6020     8.6310 o          1 CGL      -0.816300
     13 CB1         -0.8940     5.9280     6.8140 c3         1 CGL      -0.136400
     14 CG1         -1.5820     4.6930     6.2270 c3         1 CGL      -0.065400
     15 OE1          0.5900     3.7780     6.3520 o          1 CGL      -0.608100
     16 N2          -0.9490     2.4030     5.5380 ns         1 CGL      -0.152900
     17 CA2          0.0360     1.3340     5.3590 c3         1 CGL      -0.076300
     18 C2           0.1890     0.5730     6.6500 c          1 CGL       0.529100
     19 O2          -0.4600     0.8910     7.6230 o          1 CGL      -0.684100
     20 CB2         -0.4380     0.3820     4.2590 c3         1 CGL       0.051700
     21 SG2         -0.4810     1.2640     2.6740 ss         1 CGL      -0.322100
     22 N3           1.0490    -0.4640     6.7240 ns         1 CGL      -0.121900
     23 CA3          1.1990    -1.2040     7.9790 c3         1 CGL      -0.079000
     24 C3           2.2120    -2.3040     7.7960 c          1 CGL       0.970600
     25 O31          2.5130    -3.1170     8.8200 o          1 CGL      -0.883800
     26 O32          2.7540    -2.4540     6.7260 o          1 CGL      -0.883800
     27 H           -0.3340    -0.2890    -0.8980 hn         1 CGL       0.231800
     28 HN          -0.3340    -0.6330     0.6990 hn         1 CGL       0.231800
     29 HA           1.8300     0.8850    -0.5100 hx         1 CGL       0.079700
     30 HB2          2.3640     0.7160     0.7270 h1         1 CGL       0.137700
     31 HB3          2.8720    -0.5340     1.7430 h1         1 CGL       0.137700
     32 HA1         -2.4230     7.2360     6.0580 hx         1 CGL       0.057700
     33 HB12        -1.3790     6.3710     5.9530 hc         1 CGL       0.093200
     34 HB13         0.1530     6.1280     6.6210 hc         1 CGL       0.093200
     35 HG12        -2.3610     4.3590     6.9020 hc         1 CGL       0.003700
     36 HG13        -2.0190     4.9450     5.2680 hc         1 CGL       0.003700
     37 HN2         -1.9040     2.2510     5.2800 hn         1 CGL       0.164500
     38 HA2          0.9900     1.7650     5.0780 h1         1 CGL       0.086700
     39 HB22        -1.4000     0.2050     4.7230 h1         1 CGL       0.083200
     40 HB23         0.1660    -0.5160     4.2170 h1         1 CGL       0.083200
     41 HN3          1.5560    -0.7510     5.9100 hn         1 CGL       0.194500
     42 HA31         0.2450    -1.6340     8.2600 h1         1 CGL       0.028200
     43 HA32         1.5340    -0.5300     8.7580 h1         1 CGL       0.028200
     44 HN12        -3.2570     7.4460     8.4830 hn         1 CGL       0.217800
     45 HN31        -0.3340     0.9230     0.1960 hn         1 CGL       0.231800
     46 H12         -3.6750     6.1710     7.5550 hn         1 CGL       0.217800
     47 CD1         -0.5690     3.5930     6.0440 c          1 CGL       0.579100
     48 HN11        -2.4820     6.0190     8.6660 hn         1 CGL       0.217800
@<TRIPOS>BOND
     1     1     2 1   
     2     1    27 1   
     3     1    28 1   
     4     1    45 1   
     5     2     3 1   
     6     2     5 1   
     7     2    29 1   
     8     3     4 1   
     9     3    30 1   
    10     3    31 1   
    11     4    21 1   
    12     5     6 1   
    13     5     7 1   
    14     8     9 1   
    15     8    44 1   
    16     8    46 1   
    17     8    48 1   
    18     9    10 1   
    19     9    13 1   
    20     9    32 1   
    21    10    11 1   
    22    10    12 1   
    23    13    14 1   
    24    13    33 1   
    25    13    34 1   
    26    14    35 1   
    27    14    36 1   
    28    14    47 1   
    29    15    47 2   
    30    16    17 1   
    31    16    37 1   
    32    16    47 1   
    33    17    18 1   
    34    17    20 1   
    35    17    38 1   
    36    18    19 2   
    37    18    22 1   
    38    20    21 1   
    39    20    39 1   
    40    20    40 1   
    41    22    23 1   
    42    22    41 1   
    43    23    24 1   
    44    23    42 1   
    45    23    43 1   
    46    24    25 1   
    47    24    26 1   
@<TRIPOS>SUBSTRUCTURE
     1 CGL         1 TEMP              0 ****  ****    0 ROOT
