@<TRIPOS>MOLECULE
molecule
   15    15     1     0     0
SMALL
bcc


@<TRIPOS>ATOM
      1 CB           0.0000     0.0000     0.0000 c3         1 CGN      -0.085400
      2 CG           1.5450     0.0000     0.0000 c3         1 CGN      -0.170400
      3 CD           1.9160     0.0000     1.4660 c          1 CGN       0.703500
      4 N            0.8550     0.3560     2.2130 ns         1 CGN      -0.576900
      5 OE1          3.0120    -0.2760     1.9050 o          1 CGN      -0.621500
      6 C           -1.5470     0.0030     1.9700 c          1 CGN       0.556900
      7 CA          -0.3140     0.6350     1.3730 c3         1 CGN      -0.017300
      8 O           -1.4750    -0.5810     3.0230 o          1 CGN      -0.502100
      9 HB1         -0.3850     0.6140    -0.8050 hc         1 CGN       0.062200
     10 HB2         -0.3850    -1.0110    -0.0540 hc         1 CGN       0.062200
     11 HG1          1.9220    -0.8920    -0.4850 hc         1 CGN       0.080200
     12 HG2          1.9220     0.8920    -0.4850 hc         1 CGN       0.080200
     13 HN           0.8630     0.4230     3.2110 hn         1 CGN       0.352500
     14 H           -2.5060     0.1200     1.4800 h4         1 CGN       0.005200
     15 HA          -0.4490     1.7040     1.2660 h1         1 CGN       0.072700
@<TRIPOS>BOND
     1     1     2 1
     2     1     7 1
     3     1     9 1
     4     1    10 1
     5     2     3 1
     6     2    11 1
     7     2    12 1
     8     3     4 1
     9     3     5 2
    10     4     7 1
    11     4    13 1
    12     6     7 1
    13     6     8 2
    14     6    14 1
    15     7    15 1
@<TRIPOS>SUBSTRUCTURE
     1 CGN         1 TEMP              0 ****  ****    0 ROOT
