@<TRIPOS>MOLECULE
molecule
   64    68     1     0     0
SMALL
bcc


@<TRIPOS>ATOM
      1 P            0.0000     0.0000     0.0000 p5         1 CGP       1.266800
      2 O1P          1.5020     0.0000     0.0000 o          1 CGP      -0.777000
      3 O2P         -0.6600     0.0000     1.4790 o          1 CGP      -0.777000
      4 O5B         -2.9170    -4.8740    -1.8980 oh         1 CGP      -0.611800
      5 C5X         -2.4710    -3.9050    -0.9660 c3         1 CGP       0.150400
      6 C4X         -1.0060    -3.6110    -1.2350 c3         1 CGP       0.122100
      7 O4B         -0.2270    -4.8030    -1.0360 os         1 CGP      -0.410600
      8 C3X         -0.4180    -2.5700    -0.2980 c3         1 CGP       0.202100
      9 O3B         -0.6790    -1.2580    -0.7510 os         1 CGP      -0.576200
     10 C2X          1.0510    -2.9170    -0.3560 c3         1 CGP      -0.161400
     11 C1X          1.0080    -4.4340    -0.4010 c3         1 CGP       0.271500
     12 N1C          2.1070    -5.0040    -1.1250 n          1 CGP      -0.338000
     13 CC2          3.2970    -5.4210    -0.4770 c          1 CGP       0.833900
     14 N3C          4.3170    -5.9640    -1.2400 nc         1 CGP      -0.604100
     15 CC4          4.1960    -6.0940    -2.5350 cd         1 CGP       0.550500
     16 CC5          2.9630    -5.6680    -3.2490 cd         1 CGP      -0.444600
     17 CC6          1.9940    -5.1490    -2.4980 cc         1 CGP       0.117600
     18 O2C          3.4290    -5.3060     0.7430 o          1 CGP      -0.482500
     19 N4C          5.2210    -6.6360    -3.2740 nz         1 CGP      -0.743600
     20 O5D         -0.6850     1.2790    -0.7190 os         1 CGP      -0.540200
     21 C5D         -2.1000     1.3530    -0.7610 c3         1 CGP       0.198400
     22 C4D         -2.5210     2.1100    -2.0130 c3         1 CGP       0.109100
     23 O4D         -2.0580     1.3670    -3.1610 os         1 CGP      -0.395600
     24 C3D         -4.0350     2.2270    -2.1470 c3         1 CGP       0.123100
     25 O3D         -4.3590     3.4060    -2.8820 oh         1 CGP      -0.600800
     26 C2D         -4.4030     1.0250    -2.9860 c3         1 CGP      -0.141400
     27 C1D         -3.2000     0.9180    -3.9120 c3         1 CGP       0.238800
     28 N9G         -2.9590    -0.4240    -4.4310 na         1 CGP      -0.151900
     29 C8G         -3.9210    -1.3610    -4.7290 cc         1 CGP       0.465400
     30 N7G         -3.4020    -2.4870    -5.1810 nd         1 CGP      -0.581000
     31 C5G         -2.0580    -2.2570    -5.1710 cd         1 CGP       0.280800
     32 C6G         -0.9940    -3.1400    -5.5620 c          1 CGP       0.652000
     33 O6G         -1.1700    -4.2770    -5.9790 o          1 CGP      -0.527500
     34 N1G          0.2530    -2.5190    -5.3990 ns         1 CGP      -0.531400
     35 C2G          0.4530    -1.2030    -4.9170 cd         1 CGP       0.410800
     36 N2G          1.7610    -0.8000    -4.8390 nz         1 CGP      -0.721600
     37 N3G         -0.5420    -0.4180    -4.5650 nc         1 CGP      -0.403100
     38 C4G         -1.7520    -0.9980    -4.7140 cc         1 CGP       0.020800
     39 HO5C        -3.7170    -5.2640    -1.5860 ho         1 CGP       0.416000
     40 H51C        -3.0510    -2.9970    -1.0800 h1         1 CGP       0.047700
     41 H52C        -2.5870    -4.2870     0.0410 h1         1 CGP       0.047700
     42 H3B         -0.7980    -2.7130     0.7070 h1         1 CGP       0.095700
     43 H21C         1.5060    -2.5170    -1.2540 hc         1 CGP       0.088700
     44 H22C         1.5630    -2.5720     0.5340 hc         1 CGP       0.088700
     45 H1B          1.0100    -4.8160     0.6130 h2         1 CGP       0.123700
     46 H5C          2.9990    -5.4560    -4.3110 ha         1 CGP       0.157000
     47 H6C          1.0790    -4.8290    -2.9810 h4         1 CGP       0.200000
     48 H41C         4.8600    -7.3550    -3.8690 hn         1 CGP       0.474800
     49 H42C         5.9070    -7.0250    -2.6580 hn         1 CGP       0.474800
     50 H51G        -2.4620     1.8750     0.1170 h1         1 CGP       0.047200
     51 H52G        -2.5150     0.3530    -0.7850 h1         1 CGP       0.047200
     52 H4D         -2.0770     3.0980    -2.0170 h1         1 CGP       0.105700
     53 H3D         -4.5240     2.2020    -1.1800 h1         1 CGP       0.078700
     54 HO3G        -4.9780     3.9220    -2.3930 ho         1 CGP       0.420000
     55 H21G        -4.4960     0.1390    -2.3700 hc         1 CGP       0.079700
     56 H22G        -5.3080     1.2110    -3.5510 hc         1 CGP       0.079700
     57 H1D         -3.3490     1.5930    -4.7460 h2         1 CGP       0.095700
     58 H8G         -4.9840    -1.1940    -4.6070 h5         1 CGP       0.092100
     59 H1G          1.0660    -3.0480    -5.6440 hn         1 CGP       0.303500
     60 HN1G         2.2580    -1.4010    -4.2120 hn         1 CGP       0.474800
     61 HN2G         2.1790    -0.8470    -5.7470 hn         1 CGP       0.474800
     62 H4C3         5.6400    -5.9210    -3.8360 hn         1 CGP       0.474800
     63 H2G3         1.8010     0.1370    -4.4910 hn         1 CGP       0.474800
     64 H4B         -0.8870    -3.2760    -2.2580 h1         1 CGP       0.042700
@<TRIPOS>BOND
     1     1     2 1
     2     1     3 1
     3     1     9 1
     4     1    20 1
     5     4     5 1
     6     4    39 1
     7     5     6 1
     8     5    40 1
     9     5    41 1
    10     6     7 1
    11     6     8 1
    12     6    64 1
    13     7    11 1
    14     8     9 1
    15     8    10 1
    16     8    42 1
    17    10    11 1
    18    10    43 1
    19    10    44 1
    20    11    12 1
    21    11    45 1
    22    12    13 1
    23    12    17 1
    24    13    14 1
    25    13    18 2
    26    14    15 2
    27    15    16 1
    28    15    19 1
    29    16    17 2
    30    16    46 1
    31    17    47 1
    32    19    48 1
    33    19    49 1
    34    20    21 1
    35    21    22 1
    36    21    50 1
    37    21    51 1
    38    22    23 1
    39    22    24 1
    40    22    52 1
    41    23    27 1
    42    24    25 1
    43    24    26 1
    44    24    53 1
    45    25    54 1
    46    26    27 1
    47    26    55 1
    48    26    56 1
    49    27    28 1
    50    27    57 1
    51    28    29 1
    52    28    38 1
    53    29    30 2
    54    29    58 1
    55    30    31 1
    56    31    32 1
    57    31    38 2
    58    32    33 2
    59    32    34 1
    60    34    35 1
    61    34    59 1
    62    35    36 1
    63    35    37 2
    64    36    60 1
    65    36    61 1
    66    37    38 1
    67    62    19 1
    68    63    36 1
@<TRIPOS>SUBSTRUCTURE
     1 CGP         1 TEMP              0 ****  ****    0 ROOT
