@<TRIPOS>MOLECULE
molecule
   51    52     1     0     0
SMALL
bcc


@<TRIPOS>ATOM
      1 C1           0.0000     0.0000     0.0000 ca         1 CGQ      -0.273400
      2 C2           1.3930     0.0000     0.0000 ca         1 CGQ      -0.000500
      3 C3           2.0830     0.0000     1.2120 ca         1 CGQ      -0.177400
      4 C4           1.3730    -0.0110     2.4170 ca         1 CGQ       0.037500
      5 C5          -0.0070    -0.0180     2.4080 ca         1 CGQ      -0.077000
      6 C6          -0.6950    -0.0120     1.2100 ca         1 CGQ       0.012000
      7 C7           3.5560     0.0060     1.2230 ce         1 CGQ       0.590300
      8 N8           4.2000     0.0020     2.3550 n2         1 CGQ      -0.609100
      9 C9          -0.7410     0.0050    -1.2820 ce         1 CGQ       0.517800
     10 N10         -0.0770     0.0160    -2.4350 nv         1 CGQ      -0.285100
     11 N11         -2.0730    -0.0020    -1.2790 nz         1 CGQ      -0.793100
     12 N12          5.6000     0.0080     2.3660 nu         1 CGQ      -0.105500
     13 C13          6.2610     0.0030     3.5290 c2         1 CGQ       0.553700
     14 N15          5.5680    -0.0080     4.7100 nz         1 CGQ      -0.766600
     15 N19          7.5990     0.0090     3.5390 nu         1 CGQ      -0.089600
     16 N20          8.2910     0.0030     4.7570 n2         1 CGQ      -0.609100
     17 C21          9.5930     0.0100     4.7660 ce         1 CGQ       0.590300
     18 C22         10.3200     0.0040     6.0480 ca         1 CGQ      -0.177400
     19 C23          9.6140    -0.0070     7.2550 ca         1 CGQ       0.037500
     20 C24         10.2950    -0.0120     8.4550 ca         1 CGQ      -0.077000
     21 C25         11.6760    -0.0050     8.4730 ca         1 CGQ       0.012000
     22 C26         12.3940     0.0060     7.2760 ca         1 CGQ      -0.273400
     23 C27         11.7150     0.0050     6.0600 ca         1 CGQ      -0.000500
     24 C28         13.8750     0.0120     7.2980 ce         1 CGQ       0.517800
     25 N29         14.5210     0.0070     8.4620 nv         1 CGQ      -0.285100
     26 N30         14.5580     0.0220     6.1560 nz         1 CGQ      -0.793100
     27 H21          1.9370     0.0090    -0.9360 ha         1 CGQ       0.151000
     28 H41          1.9080    -0.0130     3.3590 ha         1 CGQ       0.175000
     29 H51         -0.5520    -0.0270     3.3440 ha         1 CGQ       0.227000
     30 H61         -1.7790    -0.0150     1.2110 ha         1 CGQ       0.178000
     31 H71          4.1050     0.0150     0.2880 h4         1 CGQ       0.050800
     32 H101        -0.5780     0.0190    -3.3010 hn         1 CGQ       0.383200
     33 H102         0.9240     0.0200    -2.4360 hn         1 CGQ       0.383200
     34 H111        -2.4080     0.0030    -2.2220 hn         1 CGQ       0.526300
     35 H112        -2.4100     0.8110    -0.8020 hn         1 CGQ       0.526300
     36 H121         6.1070     0.0110     1.5020 hn         1 CGQ       0.354700
     37 H151         4.8480     0.6870     4.6810 hn         1 CGQ       0.520800
     38 H152         5.1560    -0.9100     4.8460 hn         1 CGQ       0.520800
     39 H191         8.1060     0.0180     2.6760 hn         1 CGQ       0.354700
     40 H211        10.1420     0.0200     3.8320 h4         1 CGQ       0.050800
     41 H231         8.5310    -0.0130     7.2470 ha         1 CGQ       0.175000
     42 H241         9.7440    -0.0210     9.3880 ha         1 CGQ       0.227000
     43 H251        12.2040    -0.0070     9.4190 ha         1 CGQ       0.178000
     44 H271        12.2680     0.0130     5.1280 ha         1 CGQ       0.151000
     45 H291        15.5220     0.0110     8.4780 hn         1 CGQ       0.383200
     46 H292        14.0080    -0.0010     9.3210 hn         1 CGQ       0.383200
     47 H301        15.5390     0.0280     6.3540 hn         1 CGQ       0.526300
     48 H302        14.3300    -0.7940     5.6240 hn         1 CGQ       0.526300
     49 H113        -2.4010    -0.8310    -0.8260 hn         1 CGQ       0.526300
     50 H153         6.1910     0.2020     5.4640 hn         1 CGQ       0.520800
     51 H303        14.3220     0.8430     5.6340 hn         1 CGQ       0.526300
@<TRIPOS>BOND
     1     1     2 ar
     2     1     6 ar
     3     1     9 1
     4     2     3 ar
     5     2    27 1
     6     3     4 ar
     7     3     7 1
     8     4     5 ar
     9     4    28 1
    10     5     6 ar
    11     5    29 1
    12     6    30 1
    13     7     8 2
    14     7    31 1
    15     8    12 1
    16     9    10 2
    17     9    11 1
    18    10    32 1
    19    10    33 1
    20    11    34 1
    21    11    35 1
    22    12    13 2
    23    12    36 1
    24    13    14 1
    25    13    15 1
    26    14    37 1
    27    14    38 1
    28    15    16 1
    29    15    39 1
    30    16    17 2
    31    17    18 1
    32    17    40 1
    33    18    19 ar
    34    18    23 ar
    35    19    20 ar
    36    19    41 1
    37    20    21 ar
    38    20    42 1
    39    21    22 ar
    40    21    43 1
    41    22    23 ar
    42    22    24 1
    43    23    44 1
    44    24    25 2
    45    24    26 1
    46    25    45 1
    47    25    46 1
    48    26    47 1
    49    26    48 1
    50    49    11 1
    51    50    14 1
    52    51    26 1
@<TRIPOS>SUBSTRUCTURE
     1 CGQ         1 TEMP              0 ****  ****    0 ROOT
