@<TRIPOS>MOLECULE
CGQ
   51    54     1     0     0
SMALL
bcc


@<TRIPOS>ATOM
      1 C1           0.0000     0.0000     0.0000 c2         1 CGQ      -0.220000
      2 C2           1.3930     0.0000     0.0000 c2         1 CGQ       0.124500
      3 C3           2.0830     0.0000     1.2120 c3         1 CGQ      -0.205500
      4 C4           1.3730    -0.0110     2.4170 c2         1 CGQ       0.082000
      5 C5          -0.0070    -0.0180     2.4080 c2         1 CGQ      -0.050500
      6 C6          -0.6950    -0.0120     1.2100 c2         1 CGQ       0.090500
      7 C7           3.5560     0.0060     1.2230 c2         1 CGQ      -0.163500
      8 N8           4.2000     0.0020     2.3550 n2         1 CGQ      -0.227500
      9 C9          -0.7410     0.0050    -1.2820 c2         1 CGQ      -0.258000
     10 N10         -0.0770     0.0160    -2.4350 n8         1 CGQ       0.646500
     11 N11         -2.0730    -0.0020    -1.2790 nz         1 CGQ       0.910500
     12 N12          5.6000     0.0080     2.3660 n7         1 CGQ       0.374500
     13 C13          6.2610     0.0030     3.5290 c2         1 CGQ      -0.349000
     14 N15          5.5680    -0.0080     4.7100 nz         1 CGQ       0.934000
     15 N19          7.5990     0.0090     3.5390 n7         1 CGQ       0.374500
     16 N20          8.2910     0.0030     4.7570 n2         1 CGQ      -0.227500
     17 C21          9.5930     0.0100     4.7660 c2         1 CGQ      -0.163500
     18 C22         10.3200     0.0040     6.0480 c3         1 CGQ      -0.205500
     19 C23          9.6140    -0.0070     7.2550 c2         1 CGQ       0.082000
     20 C24         10.2950    -0.0120     8.4550 c2         1 CGQ      -0.050500
     21 C25         11.6760    -0.0050     8.4730 c2         1 CGQ       0.090500
     22 C26         12.3940     0.0060     7.2760 c2         1 CGQ      -0.220000
     23 C27         11.7150     0.0050     6.0600 c2         1 CGQ       0.124500
     24 C28         13.8750     0.0120     7.2980 c2         1 CGQ      -0.258000
     25 N29         14.5210     0.0070     8.4620 n8         1 CGQ       0.646500
     26 N30         14.5580     0.0220     6.1560 nz         1 CGQ       0.910500
     27 H21          1.9370     0.0090    -0.9360 ha         1 CGQ       0.129000
     28 H41          1.9080    -0.0130     3.3590 ha         1 CGQ       0.134000
     29 H51         -0.5520    -0.0270     3.3440 ha         1 CGQ       0.183000
     30 H61         -1.7790    -0.0150     1.2110 ha         1 CGQ       0.132000
     31 H71          2.9470    -0.8720     1.3970 DU         1 CGQ       0.352500
     32 H101         0.9240     0.0200    -2.4360 hn         1 CGQ       0.124750
     33 H102        -0.5780     0.0190    -3.3010 hn         1 CGQ       0.124750
     34 H111        -2.4020    -0.8230    -0.8120 hn         1 CGQ       0.069333
     35 H112        -2.4080     0.0030    -2.2220 hn         1 CGQ       0.069333
     36 H121         6.1070     0.0210     1.5030 hn         1 CGQ       0.134500
     37 H151         5.3140    -0.9490     4.9390 hn         1 CGQ       0.053667
     38 H152         6.1420     0.3690     5.4370 hn         1 CGQ       0.053667
     39 H191         8.1060     0.0160     2.6760 hn         1 CGQ       0.134500
     40 H211         9.7390    -0.8690     5.3830 DU         1 CGQ       0.352500
     41 H231         8.5310    -0.0130     7.2470 ha         1 CGQ       0.134000
     42 H241         9.7440    -0.0210     9.3880 ha         1 CGQ       0.183000
     43 H251        12.2040    -0.0070     9.4190 ha         1 CGQ       0.132000
     44 H271        12.2680     0.0130     5.1280 ha         1 CGQ       0.129000
     45 H291        14.0080    -0.0010     9.3210 hn         1 CGQ       0.124750
     46 H292        15.5220     0.0110     8.4780 hn         1 CGQ       0.124750
     47 H301        15.5390     0.0280     6.3540 hn         1 CGQ       0.069333
     48 H302        14.3190     0.8400     5.6320 hn         1 CGQ       0.069333
     49 H113        -2.4100     0.8190    -0.8150 hn         1 CGQ       0.069333
     50 H153         4.7460     0.5560     4.6190 hn         1 CGQ       0.053667
     51 H303        14.3240    -0.7900     5.6200 hn         1 CGQ       0.069333
@<TRIPOS>BOND
     1     1     2 1   
     2     1     6 1   
     3     1     9 1   
     4     2     3 1   
     5     2    27 1   
     6     3     4 1   
     7     3     7 1   
     8     3    31 1   
     9     4     5 1   
    10     4    28 1   
    11     5     6 1   
    12     5    29 1   
    13     6    30 1   
    14     7     8 1   
    15     7    31 1   
    16     8    12 1   
    17     9    10 1   
    18     9    11 1   
    19    10    32 1   
    20    10    33 1   
    21    11    34 1   
    22    11    35 1   
    23    11    49 1   
    24    12    13 1   
    25    12    36 1   
    26    13    14 1   
    27    13    15 1   
    28    14    37 1   
    29    14    38 1   
    30    14    50 1   
    31    15    16 1   
    32    15    39 1   
    33    16    17 1   
    34    17    18 1   
    35    17    40 1   
    36    18    19 1   
    37    18    23 1   
    38    18    40 1   
    39    19    20 1   
    40    19    41 1   
    41    20    21 1   
    42    20    42 1   
    43    21    22 1   
    44    21    43 1   
    45    22    23 1   
    46    22    24 1   
    47    23    44 1   
    48    24    25 1   
    49    24    26 1   
    50    25    45 1   
    51    25    46 1   
    52    26    47 1   
    53    26    48 1   
    54    26    51 1   
@<TRIPOS>SUBSTRUCTURE
     1 CGQ         1 TEMP              0 ****  ****    0 ROOT
