@<TRIPOS>MOLECULE
CGS
   50    51     1     0     0
SMALL
bcc


@<TRIPOS>ATOM
      1 N1           0.0000     0.0000     0.0000 n3         1 CGS      -0.491500
      2 CC          -0.7330    -1.1150     0.6010 c3         1 CGS       0.266100
      3 CA           1.4640     0.0000     0.0000 c3         1 CGS       0.142500
      4 S4          -0.8280     1.2610    -0.6830 sy         1 CGS       1.056200
      5 C5          -0.9250    -2.2020    -0.4240 ca         1 CGS      -0.244600
      6 CD          -0.0720    -3.2950    -0.4580 ca         1 CGS      -0.068000
      7 CE          -0.2870    -4.2710    -1.4190 ca         1 CGS      -0.234300
      8 CZ          -1.3370    -4.1230    -2.3050 ca         1 CGS       0.404200
      9 N11         -2.1280    -3.0700    -2.2450 nb         1 CGS      -0.585000
     10 CY          -1.9580    -2.1250    -1.3400 ca         1 CGS       0.408200
     11 C17         -1.0910     2.4620     0.5790 ca         1 CGS      -0.202500
     12 CE2         -0.1580     3.4590     0.7900 ca         1 CGS       0.048500
     13 CD2         -0.3630     4.4020     1.7780 ca         1 CGS      -0.212500
     14 C20         -1.5060     4.3470     2.5610 ca         1 CGS       0.188100
     15 CD1         -2.4390     3.3430     2.3520 ca         1 CGS      -0.212500
     16 CE1         -2.2330     2.4060     1.3570 ca         1 CGS       0.048500
     17 O27         -1.7100     5.2740     3.5340 os         1 CGS      -0.280900
     18 COM         -2.9570     4.9530     4.1550 c3         1 CGS       0.216700
     19 O32         -2.1140     0.7510    -1.0050 o          1 CGS      -0.590800
     20 O33          0.0730     1.8610    -1.6030 o          1 CGS      -0.590800
     21 C34          1.9650     0.0000     1.4210 c          1 CGS       0.557100
     22 N35          3.1430     0.5820     1.7200 ns         1 CGS      -0.056400
     23 CB           1.9740    -1.2490    -0.7210 c3         1 CGS      -0.094700
     24 CG2          1.4380    -1.2640    -2.1540 c3         1 CGS      -0.005100
     25 CG1          3.5040    -1.2320    -0.7490 c3         1 CGS      -0.005100
     26 O47          1.3100    -0.5260     2.2950 o          1 CGS      -0.621100
     27 O48          3.6140     0.5820     3.0550 oh         1 CGS      -0.439100
     28 HC1         -1.7000    -0.7680     0.9450 h1         1 CGS       0.051700
     29 HC2         -0.1710    -1.5060     1.4410 h1         1 CGS       0.051700
     30 HA           1.8250     0.8850    -0.5100 h1         1 CGS       0.062700
     31 HD           0.7430    -3.3840     0.2510 ha         1 CGS       0.121000
     32 HE           0.3600    -5.1380    -1.4740 ha         1 CGS       0.111000
     33 HZ          -1.5100    -4.8800    -3.0610 h4         1 CGS      -0.023900
     34 HY          -2.6280    -1.2750    -1.3210 h4         1 CGS       0.029100
     35 HE2          0.7350     3.5020     0.1780 ha         1 CGS       0.118000
     36 HD2          0.3690     5.1840     1.9410 ha         1 CGS       0.130000
     37 HD1         -3.3330     3.2990     2.9610 ha         1 CGS       0.130000
     38 HE1         -2.9620     1.6210     1.1930 ha         1 CGS       0.118000
     39 HOM1        -3.7480     4.9890     3.4150 h1         1 CGS       0.005700
     40 HOM2        -2.9040     3.9570     4.5790 h1         1 CGS       0.005700
     41 HOM3        -3.1640     5.6690     4.9410 h1         1 CGS       0.005700
     42 H49          3.6610     1.0580     1.0080 hn         1 CGS       0.161500
     43 HB           1.6320    -2.1340    -0.1980 hc         1 CGS       0.065700
     44 HG21         1.9210    -0.4830    -2.7290 hc         1 CGS       0.010200
     45 HG22         1.6450    -2.2260    -2.6070 hc         1 CGS       0.010200
     46 HG23         0.3680    -1.0930    -2.1410 hc         1 CGS       0.010200
     47 HG11         3.8580    -1.8780    -1.5430 hc         1 CGS       0.010200
     48 HG12         3.8860    -1.5860     0.2010 hc         1 CGS       0.010200
     49 HG13         3.8510    -0.2210    -0.9230 hc         1 CGS       0.010200
     50 H50          4.4040     1.0930     3.1090 ho         1 CGS       0.394000
@<TRIPOS>BOND
     1     1     2 1   
     2     1     3 1   
     3     1     4 1   
     4     2     5 1   
     5     2    28 1   
     6     2    29 1   
     7     3    21 1   
     8     3    23 1   
     9     3    30 1   
    10     4    11 1   
    11     4    19 2   
    12     4    20 2   
    13     5     6 ar  
    14     5    10 ar  
    15     6     7 ar  
    16     6    31 1   
    17     7     8 ar  
    18     7    32 1   
    19     8     9 ar  
    20     8    33 1   
    21     9    10 ar  
    22    10    34 1   
    23    11    12 ar  
    24    11    16 ar  
    25    12    13 ar  
    26    12    35 1   
    27    13    14 ar  
    28    13    36 1   
    29    14    15 ar  
    30    14    17 1   
    31    15    16 ar  
    32    15    37 1   
    33    16    38 1   
    34    17    18 1   
    35    18    39 1   
    36    18    40 1   
    37    18    41 1   
    38    21    22 1   
    39    21    26 2   
    40    22    27 1   
    41    22    42 1   
    42    23    24 1   
    43    23    25 1   
    44    23    43 1   
    45    24    44 1   
    46    24    45 1   
    47    24    46 1   
    48    25    47 1   
    49    25    48 1   
    50    25    49 1   
    51    27    50 1   
@<TRIPOS>SUBSTRUCTURE
     1 CGS         1 TEMP              0 ****  ****    0 ROOT
