@<TRIPOS>MOLECULE
CGT
   46    47     1     0     0
SMALL
bcc


@<TRIPOS>ATOM
      1 C1           0.0000     0.0000     0.0000 c3         1 CGT       0.050400
      2 S1          -0.6040     0.0010    -1.7060 ss         1 CGT      -0.388300
      3 C2           1.5290     0.0000     0.0000 c3         1 CGT       0.184100
      4 O2           2.0060    -1.1670    -0.6740 oh         1 CGT      -0.570800
      5 C3           2.0400     0.0000     1.4420 c3         1 CGT       0.131100
      6 O3           3.4690     0.0000     1.4420 oh         1 CGT      -0.603800
      7 C4           1.5300     1.2500     2.1640 c3         1 CGT       0.174100
      8 O4           2.0070     1.2490     3.5110 oh         1 CGT      -0.586800
      9 C5          -0.0000     1.2500     2.1630 c3         1 CGT      -0.075700
     10 C7          -0.5100     1.2490     0.7210 c3         1 CGT       0.003600
     11 C6          -0.5100     2.4990     2.8850 c3         1 CGT       0.227400
     12 O6          -1.9340     2.4420     2.9870 oh         1 CGT      -0.580800
     13 CB           0.9120    -1.9050    -3.1560 c3         1 CGT       0.027600
     14 CG           1.0530    -3.3880    -3.3840 ca         1 CGT      -0.074300
     15 CD1          0.3340    -4.0040    -4.3910 ca         1 CGT      -0.074500
     16 CD2          1.9030    -4.1330    -2.5880 ca         1 CGT      -0.074500
     17 CE1          0.4620    -5.3650    -4.5990 ca         1 CGT      -0.095500
     18 CE2          2.0290    -5.4940    -2.7940 ca         1 CGT      -0.095500
     19 CZ           1.3100    -6.1100    -3.8010 ca         1 CGT      -0.105000
     20 C13         -0.2010    -1.6510    -2.1730 c2         1 CGT       0.331200
     21 N17         -0.8610    -2.6430    -1.6720 n2         1 CGT      -0.181200
     22 O18         -1.9790    -2.4020    -0.8380 os         1 CGT      -0.267200
     23 S19         -2.5950    -3.7570    -0.5240 s6         1 CGT       1.316300
     24 O20         -2.5170    -4.5050    -1.7290 o          1 CGT      -0.666867
     25 O21         -3.7890    -3.4810     0.1970 o          1 CGT      -0.666867
     26 O22         -1.6710    -4.4600     0.4600 o          1 CGT      -0.666867
     27 H1          -0.3590    -0.8830     0.5150 h1         1 CGT       0.094700
     28 H2           1.8880     0.8870    -0.5080 h1         1 CGT       0.016700
     29 HA           2.9370    -1.0990    -0.8000 ho         1 CGT       0.393000
     30 H3           1.6750    -0.8830     1.9520 h1         1 CGT       0.041700
     31 HB           3.7840    -0.6170     2.0810 ho         1 CGT       0.400000
     32 H4           1.8900     2.1330     1.6490 h1         1 CGT       0.005700
     33 HC           2.6240     1.9530     3.6260 ho         1 CGT       0.386000
     34 H5          -0.3590     0.3630     2.6710 hc         1 CGT       0.064700
     35 H7C1        -1.5930     1.2470     0.7220 hc         1 CGT       0.036200
     36 H7C2        -0.1460     2.1330     0.2100 hc         1 CGT       0.036200
     37 H6C1        -0.0790     2.5440     3.8770 h1         1 CGT      -0.016300
     38 H6C2        -0.2230     3.3810     2.3260 h1         1 CGT      -0.016300
     39 H6          -2.2350     3.1210     3.5670 ho         1 CGT       0.381000
     40 HBC1         1.8400    -1.5100    -2.7610 hc         1 CGT       0.021700
     41 HBC2         0.6820    -1.4160    -4.0950 hc         1 CGT       0.021700
     42 HD1         -0.3300    -3.4210    -5.0170 ha         1 CGT       0.098000
     43 HD2          2.4670    -3.6500    -1.7990 ha         1 CGT       0.098000
     44 HE1         -0.1010    -5.8470    -5.3880 ha         1 CGT       0.089500
     45 HE2          2.6950    -6.0770    -2.1690 ha         1 CGT       0.089500
     46 HZ           1.4090    -7.1760    -3.9630 ha         1 CGT       0.087000
@<TRIPOS>BOND
     1     1     2 1   
     2     1     3 1   
     3     1    10 1   
     4     1    27 1   
     5     2    20 1   
     6     3     4 1   
     7     3     5 1   
     8     3    28 1   
     9     4    29 1   
    10     5     6 1   
    11     5     7 1   
    12     5    30 1   
    13     6    31 1   
    14     7     8 1   
    15     7     9 1   
    16     7    32 1   
    17     8    33 1   
    18     9    10 1   
    19     9    11 1   
    20     9    34 1   
    21    10    35 1   
    22    10    36 1   
    23    11    12 1   
    24    11    37 1   
    25    11    38 1   
    26    12    39 1   
    27    13    14 1   
    28    13    20 1   
    29    13    40 1   
    30    13    41 1   
    31    14    15 ar  
    32    14    16 ar  
    33    15    17 ar  
    34    15    42 1   
    35    16    18 ar  
    36    16    43 1   
    37    17    19 ar  
    38    17    44 1   
    39    18    19 ar  
    40    18    45 1   
    41    19    46 1   
    42    20    21 2   
    43    21    22 1   
    44    22    23 1   
    45    23    24 1   
    46    23    25 1   
    47    23    26 1   
@<TRIPOS>SUBSTRUCTURE
     1 CGT         1 TEMP              0 ****  ****    0 ROOT
