@<TRIPOS>MOLECULE
CGW
   28    29     1     0     0
SMALL
bcc


@<TRIPOS>ATOM
      1 N            0.0000     0.0000     0.0000 nz         1 CGW       0.048400
      2 CA           1.4690     0.0000     0.0000 c3         1 CGW      -0.142500
      3 C            1.9720    -1.2310    -0.7100 c          1 CGW       0.948600
      4 OXT          1.2460    -2.1860    -0.8490 o          1 CGW      -0.802300
      5 CB           1.9790     0.0000     1.4430 c3         1 CGW      -0.065000
      6 O            3.2260    -1.2640    -1.1890 o          1 CGW      -0.802300
      7 CAF          2.2980     4.7460     2.5580 c3         1 CGW       0.197900
      8 CAG          3.3240     2.6400     1.2460 c3         1 CGW       0.140900
      9 CAL          1.5480     3.4280     2.7110 cc         1 CGW      -0.251400
     10 CAM          2.0590     2.3770     2.0560 cd         1 CGW      -0.118600
     11 CAN          0.3620     3.2400     3.4860 c          1 CGW       0.616700
     12 CAO          0.3130     0.9920     2.8880 c          1 CGW       0.571500
     13 NAI         -0.2210     2.0330     3.5540 ns         1 CGW      -0.122500
     14 NAQ          1.4240     1.1530     2.1560 n          1 CGW       0.042000
     15 SAJ          3.9390     4.2260     1.9280 ss         1 CGW      -0.353200
     16 H1          -0.3340     0.8820     0.3350 hn         1 CGW       0.222800
     17 H2          -0.3340    -0.7310     0.5960 hn         1 CGW       0.222800
     18 H4           1.8300     0.8840    -0.5110 hx         1 CGW       0.067700
     19 H6           2.8490    -0.5470     1.7860 h1         1 CGW       0.095700
     20 H7           2.3860     0.7440     0.7690 h1         1 CGW       0.095700
     21 H8           1.8020     5.3700     1.8240 h1         1 CGW       0.065700
     22 H9           2.4080     5.2230     3.5240 h1         1 CGW       0.065700
     23 H10          4.0480     1.8550     1.4270 h1         1 CGW       0.070700
     24 H11          3.0730     2.7610     0.1990 h1         1 CGW       0.070700
     25 H12         -1.0520     1.9070     4.0990 hn         1 CGW       0.216500
     26 OAD         -0.2160    -0.1000     2.9490 o          1 CGW      -0.695500
     27 HN3         -0.3340    -0.1510    -0.9310 hn         1 CGW       0.222800
     28 OAC         -0.1210     4.1810     4.0900 o          1 CGW      -0.628500
@<TRIPOS>BOND
     1     1     2 1   
     2     1    16 1   
     3     1    17 1   
     4     1    27 1   
     5     2     3 1   
     6     2     5 1   
     7     2    18 1   
     8     3     4 1   
     9     3     6 1   
    10     5    14 1   
    11     5    19 1   
    12     5    20 1   
    13     7     9 1   
    14     7    15 1   
    15     7    21 1   
    16     7    22 1   
    17     8    10 1   
    18     8    15 1   
    19     8    23 1   
    20     8    24 1   
    21     9    10 2   
    22     9    11 1   
    23    10    14 1   
    24    11    13 1   
    25    11    28 2   
    26    12    13 1   
    27    12    14 1   
    28    12    26 2   
    29    13    25 1   
@<TRIPOS>SUBSTRUCTURE
     1 CGW         1 TEMP              0 ****  ****    0 ROOT
