@<TRIPOS>MOLECULE
molecule
   28    29     1     0     0
SMALL
bcc


@<TRIPOS>ATOM
      1 N            0.0000     0.0000     0.0000 nz         1 CGW      -0.798600
      2 CA           1.4690     0.0000     0.0000 c3         1 CGW       0.029500
      3 C            1.9720    -1.2310    -0.7100 c          1 CGW       0.863600
      4 OXT          1.2460    -2.1860    -0.8490 o          1 CGW      -0.756800
      5 CB           1.9790     0.0000     1.4430 c3         1 CGW       0.011000
      6 O            3.2260    -1.2640    -1.1890 o          1 CGW      -0.756800
      7 CAF          2.2980     4.7460     2.5580 c3         1 CGW       0.100900
      8 CAG          3.3240     2.6400     1.2460 c3         1 CGW       0.045900
      9 CAL          1.5480     3.4280     2.7110 cc         1 CGW      -0.259400
     10 CAM          2.0590     2.3770     2.0560 cd         1 CGW       0.043400
     11 CAN          0.3620     3.2400     3.4860 c          1 CGW       0.707700
     12 CAO          0.3130     0.9920     2.8880 c          1 CGW       0.791500
     13 NAI         -0.2210     2.0330     3.5540 ns         1 CGW      -0.559500
     14 NAQ          1.4240     1.1530     2.1560 n          1 CGW      -0.373000
     15 SAJ          3.9390     4.2260     1.9280 ss         1 CGW      -0.291200
     16 H1          -0.3340     0.8820     0.3350 hn         1 CGW       0.447133
     17 H2          -0.3340    -0.7310     0.5960 hn         1 CGW       0.447133
     18 H4           1.8300     0.8840    -0.5110 hx         1 CGW       0.082700
     19 H6           2.8490    -0.5470     1.7860 h1         1 CGW       0.125700
     20 H7           2.3860     0.7440     0.7690 h1         1 CGW       0.125700
     21 H8           1.8020     5.3700     1.8240 h1         1 CGW       0.097700
     22 H9           2.4080     5.2230     3.5240 h1         1 CGW       0.097700
     23 H10          4.0480     1.8550     1.4270 h1         1 CGW       0.101200
     24 H11          3.0730     2.7610     0.1990 h1         1 CGW       0.101200
     25 H12         -1.0520     1.9070     4.0990 hn         1 CGW       0.373500
     26 OAD         -0.2160    -0.1000     2.9490 o          1 CGW      -0.648500
     27 HN3         -0.3340    -0.1510    -0.9310 hn         1 CGW       0.447133
     28 OAC         -0.1210     4.1810     4.0900 o          1 CGW      -0.595500
@<TRIPOS>BOND
     1     7     9 1
     2     7    15 1
     3     8    10 1
     4     8    15 1
     5     9    10 2
     6     9    11 1
     7    28    11 2
     8    10    14 1
     9    11    13 1
    10    14     5 1
    11    14    12 1
    12    13    12 1
    13     5     2 1
    14    12    26 2
    15     6     3 1
    16     2     3 1
    17     2     1 1
    18     3     4 1
    19     1    16 1
    20     1    17 1
    21     2    18 1
    22     5    19 1
    23     5    20 1
    24     7    21 1
    25     7    22 1
    26     8    23 1
    27     8    24 1
    28    13    25 1
    29    27     1 1
@<TRIPOS>SUBSTRUCTURE
     1 CGW         1 TEMP              0 ****  ****    0 ROOT
