@<TRIPOS>MOLECULE
molecule
   41    42     1     0     0
SMALL
bcc


@<TRIPOS>ATOM
      1 N1           0.0000     0.0000     0.0000 n          1 CH1      -0.401000
      2 C2           1.3450     0.0000     0.0000 c          1 CH1       0.850900
      3 N3           2.0330     0.0000     1.1400 nc         1 CH1      -0.887100
      4 C4           1.4070     0.0010     2.3090 cd         1 CH1       0.110500
      5 C5          -0.0030    -0.0040     2.3440 cd         1 CH1      -0.264600
      6 C6          -0.6890     0.0020     1.1770 cc         1 CH1      -0.126400
      7 O2           1.9450    -0.0020    -1.0630 o          1 CH1      -0.738500
      8 N4           2.1280     0.0010     3.4810 nz         1 CH1      -0.606600
      9 C1'         -0.7300    -0.0000    -1.2700 c3         1 CH1       0.327500
     10 C2'         -0.4360     1.2940    -2.0590 c3         1 CH1       0.089100
     11 O2'         -1.4840     2.2490    -1.8760 oh         1 CH1      -0.629800
     12 C3'         -0.3780     0.8290    -3.5340 c3         1 CH1      -0.134400
     13 C4'         -0.6480    -0.6900    -3.4580 c3         1 CH1       0.142100
     14 O4'         -0.2580    -1.0690    -2.1200 os         1 CH1      -0.353600
     15 C5'          0.2000    -1.4370    -4.4910 c3         1 CH1       0.160400
     16 O5'         -0.0980    -2.8330    -4.4330 os         1 CH1      -0.530200
     17 PA           0.8240    -3.5520    -5.5390 p5         1 CH1       1.263800
     18 O1A          0.3910    -3.0510    -7.0070 o          1 CH1      -0.735500
     19 O2A          2.2430    -3.2070    -5.2980 o          1 CH1      -0.735500
     20 O3A          0.6360    -5.1480    -5.4400 os         1 CH1      -0.609800
     21 PB           1.9170    -5.8130    -6.1510 p5         1 CH1       1.247800
     22 O1B          1.7770    -5.6720    -7.7500 o          1 CH1      -0.509000
     23 O2B          3.1460    -5.1210    -5.7020 o          1 CH1      -0.509000
     24 O3B          2.0040    -7.3710    -5.7550 os         1 CH1      -0.594800
     25 PG           3.5210    -7.8370    -6.0280 p5         1 CH1       1.109900
     26 O1G          3.7870    -9.2480    -5.2990 o          1 CH1      -0.618500
     27 O2G          3.7560    -7.9990    -7.6120 o          1 CH1      -0.618500
     28 O3G          4.4530    -6.8210    -5.4920 o          1 CH1      -0.618500
     29 H5          -0.5200    -0.1950     3.2760 ha         1 CH1       0.053000
     30 H6          -1.7590     0.1710     1.1780 h4         1 CH1       0.098000
     31 HN41         3.0960     0.1540     3.2760 hn         1 CH1       0.341467
     32 HN42         1.7940     0.7310     4.0780 hn         1 CH1       0.341467
     33 H1'         -1.7950    -0.1010    -1.0990 h2         1 CH1       0.032700
     34 H2'          0.5190     1.7080    -1.7580 h1         1 CH1       0.084700
     35 HO2'        -1.1240     3.1200    -1.9070 ho         1 CH1       0.378000
     36 H3'2         0.6030     1.0180    -3.9520 hc         1 CH1       0.046700
     37 H3'         -1.1480     1.3210    -4.1160 hc         1 CH1       0.046700
     38 H4'         -1.7020    -0.8910    -3.6120 h1         1 CH1       0.027700
     39 H5'1         1.2500    -1.2820    -4.2750 h1         1 CH1       0.063200
     40 H5'2        -0.0240    -1.0610    -5.4820 h1         1 CH1       0.063200
     41 H43          2.0310    -0.8870     3.9320 hn         1 CH1       0.341467
@<TRIPOS>BOND
     1     1     2 1
     2     1     6 1
     3     1     9 1
     4     2     3 1
     5     2     7 2
     6     3     4 2
     7     4     5 1
     8     4     8 1
     9     5     6 2
    10     5    29 1
    11     6    30 1
    12     8    31 1
    13     8    32 1
    14     9    10 1
    15     9    14 1
    16     9    33 1
    17    10    11 1
    18    10    12 1
    19    10    34 1
    20    11    35 1
    21    12    13 1
    22    12    36 1
    23    12    37 1
    24    13    14 1
    25    13    15 1
    26    13    38 1
    27    15    16 1
    28    15    39 1
    29    15    40 1
    30    16    17 1
    31    17    18 1
    32    17    19 1
    33    17    20 1
    34    20    21 1
    35    21    22 1
    36    21    23 1
    37    21    24 1
    38    24    25 1
    39    25    26 1
    40    25    27 1
    41    25    28 1
    42    41     8 1
@<TRIPOS>SUBSTRUCTURE
     1 CH1         1 TEMP              0 ****  ****    0 ROOT
