@<TRIPOS>MOLECULE
molecule
    5     4     1     0     0
SMALL
bcc


@<TRIPOS>ATOM
      1 C            0.0000     0.0000     0.0000 c3         1 CH3      -0.103800
      2 HC1          1.0830     0.0000     0.0000 hc         1 CH3       0.025700
      3 HC2         -0.3610     0.0000     1.0210 hc         1 CH3       0.025700
      4 HC3         -0.3610    -0.8850    -0.5110 hc         1 CH3       0.025700
      5 HC4         -0.3610     0.8850    -0.5110 hc         1 CH3       0.025700
@<TRIPOS>BOND
     1     1     2 1
     2     1     3 1
     3     1     4 1
     4     1     5 1
@<TRIPOS>SUBSTRUCTURE
     1 CH3         1 TEMP              0 ****  ****    0 ROOT
