@<TRIPOS>MOLECULE
CH3
    5     4     1     0     0
SMALL
bcc


@<TRIPOS>ATOM
      1 C          -0.0000   -0.0000   -0.0000 c3        1 CH3     -0.108800
      2 HC1         1.1120   -0.0000    0.0010 hc        1 CH3      0.026700
      3 HC2        -0.3710   -0.0000    1.0480 hc        1 CH3      0.026700
      4 HC3        -0.3700    0.9080   -0.5240 hc        1 CH3      0.026700
      5 HC4        -0.3700   -0.9070   -0.5250 hc        1 CH3      0.026700
@<TRIPOS>BOND
     1    1    2 1   
     2    1    3 1   
     3    1    4 1   
     4    1    5 1   
@<TRIPOS>SUBSTRUCTURE
     1 CH3         1 TEMP              0 ****  ****    0 ROOT
