@<TRIPOS>MOLECULE
CH4
   35    34     1     0     0
SMALL
bcc


@<TRIPOS>ATOM
      1 CA           0.0000     0.0000     0.0000 c3         1 CH4      -0.187700
      2 CB1          1.5300     0.0000     0.0000 c3         1 CH4       0.153800
      3 NG1          2.0200     0.0000     1.3850 n7         1 CH4      -0.551200
      4 CD1          3.4870    -0.0010     1.3150 c3         1 CH4       0.134800
      5 CE1          4.0660    -0.0020     2.7300 c3         1 CH4      -0.056200
      6 NZ1          5.5330    -0.0020     2.6590 nz         1 CH4       0.093900
      7 CB2         -0.5090     0.1270    -1.4370 c3         1 CH4       0.153800
      8 NG2         -1.9740     0.2480    -1.4280 n7         1 CH4      -0.551200
      9 CD2         -2.3960     0.3650    -2.8300 c3         1 CH4       0.134800
     10 CE2         -3.9190     0.4940    -2.8950 c3         1 CH4      -0.056200
     11 NZ2         -4.3410     0.6110    -4.2970 nz         1 CH4       0.093900
     12 C           -0.5030    -1.2880     0.6000 c          1 CH4       0.658900
     13 O           -1.1970    -1.2630     1.5880 o          1 CH4      -0.512100
     14 HA          -0.3610     0.8360     0.5860 hc         1 CH4       0.057700
     15 HB12         1.8910     0.8840    -0.5110 h1         1 CH4       0.019950
     16 HB13         1.8910    -0.8840    -0.5110 h1         1 CH4       0.019950
     17 HG1          1.7090     0.8300     1.8490 hn         1 CH4       0.272800
     18 HD12         3.8230     0.8840     0.7880 h1         1 CH4       0.025200
     19 HD13         3.8230    -0.8850     0.7870 h1         1 CH4       0.025200
     20 HE12         3.7300     0.8830     3.2580 hx         1 CH4       0.093700
     21 HE13         3.7300    -0.8860     3.2570 hx         1 CH4       0.093700
     22 HZ11         5.9120    -0.0040     3.5850 hn         1 CH4       0.226133
     23 HZ12         5.8440     0.8170     2.1740 hn         1 CH4       0.226133
     24 HB22        -0.2230    -0.7530    -2.0010 h1         1 CH4       0.019950
     25 HB23        -0.0770     1.0070    -1.8970 h1         1 CH4       0.019950
     26 HG2         -2.2380     1.0750    -0.9300 hn         1 CH4       0.272800
     27 HD22        -2.0850    -0.5180    -3.3760 h1         1 CH4       0.025200
     28 HD23        -1.9400     1.2430    -3.2730 h1         1 CH4       0.025200
     29 HE22        -4.2300     1.3760    -2.3490 hx         1 CH4       0.093700
     30 HE23        -4.3750    -0.3840    -2.4530 hx         1 CH4       0.093700
     31 HZ21        -5.3370     0.6940    -4.3400 hn         1 CH4       0.226133
     32 HZ22        -3.9210     1.4230    -4.7050 hn         1 CH4       0.226133
     33 H           -0.2510    -2.2350     0.1380 h4         1 CH4      -0.024800
     34 HZ13         5.8440    -0.8260     2.1850 hn         1 CH4       0.226133
     35 HZ23        -4.0610    -0.2080    -4.8000 hn         1 CH4       0.226133
@<TRIPOS>BOND
     1     1     2 1   
     2     1     7 1   
     3     1    12 1   
     4     1    14 1   
     5     2     3 1   
     6     2    15 1   
     7     2    16 1   
     8     3     4 1   
     9     3    17 1   
    10     4     5 1   
    11     4    18 1   
    12     4    19 1   
    13     5     6 1   
    14     5    20 1   
    15     5    21 1   
    16     6    22 1   
    17     6    23 1   
    18     6    34 1   
    19     7     8 1   
    20     7    24 1   
    21     7    25 1   
    22     8     9 1   
    23     8    26 1   
    24     9    10 1   
    25     9    27 1   
    26     9    28 1   
    27    10    11 1   
    28    10    29 1   
    29    10    30 1   
    30    11    31 1   
    31    11    32 1   
    32    11    35 1   
    33    12    13 2   
    34    12    33 1   
@<TRIPOS>SUBSTRUCTURE
     1 CH4         1 TEMP              0 ****  ****    0 ROOT
