@<TRIPOS>MOLECULE
molecule
   36    35     1     0     0
SMALL
bcc


@<TRIPOS>ATOM
      1 C1           0.0000     0.0000     0.0000 c3         1 CH5       0.143400
      2 C2           1.5310     0.0000     0.0000 c3         1 CH5       0.150100
      3 C3           2.0400     0.0000     1.4420 c3         1 CH5       0.125400
      4 C4          -4.1090    -0.0180    -2.6280 c3         1 CH5       0.133400
      5 C5          -4.7500    -0.0280    -4.0170 c3         1 CH5       0.100800
      6 C6          -4.7350    -2.4240    -3.9070 c3         1 CH5       0.097433
      7 C7          -2.9200    -1.2610    -4.9590 c3         1 CH5       0.097433
      8 C8          -5.0760    -1.3230    -6.0100 c3         1 CH5       0.097433
      9 N           -4.3700    -1.2580    -4.7230 n4         1 CH5      -0.569800
     10 O2           2.0060    -1.1670    -0.6730 oh         1 CH5      -0.597800
     11 O3           3.4650     0.1180     1.4440 oh         1 CH5      -0.613800
     12 O1P         -2.5390    -1.1000    -0.5470 o          1 CH5      -0.798500
     13 O2P         -2.5900     1.4230    -0.4850 o          1 CH5      -0.798500
     14 O3P         -0.4760     0.1170    -1.3420 os         1 CH5      -0.545200
     15 O4P         -2.6910     0.1070    -2.7580 os         1 CH5      -0.558200
     16 P           -2.0840     0.1100    -1.2670 p5         1 CH5       1.259800
     17 H11         -0.3610     0.8370     0.5850 h1         1 CH5       0.067200
     18 H12         -0.3610    -0.9250     0.4320 h1         1 CH5       0.067200
     19 H2           1.8920     0.8840    -0.5110 h1         1 CH5       0.046700
     20 H31          1.6080     0.8360     1.9780 h1         1 CH5       0.032200
     21 H32          1.7540    -0.9260     1.9260 h1         1 CH5       0.032200
     22 H41         -4.3440    -0.9420    -2.1150 h1         1 CH5       0.093200
     23 H42         -4.4940     0.8200    -2.0590 h1         1 CH5       0.093200
     24 H51         -5.8280     0.0140    -3.9180 hx         1 CH5       0.093200
     25 H52         -4.4060     0.8320    -4.5800 hx         1 CH5       0.093200
     26 H61         -5.6940    -2.2480    -3.4340 hx         1 CH5       0.095256
     27 H62         -3.9810    -2.5810    -3.1450 hx         1 CH5       0.095256
     28 H63         -4.7980    -3.3010    -4.5380 hx         1 CH5       0.095256
     29 H71         -2.6930    -1.9040    -5.8000 hx         1 CH5       0.095256
     30 H72         -2.4110    -1.6270    -4.0760 hx         1 CH5       0.095256
     31 H73         -2.5880    -0.2530    -5.1760 hx         1 CH5       0.095256
     32 H81         -4.7860    -2.2240    -6.5350 hx         1 CH5       0.095256
     33 H82         -6.1450    -1.3340    -5.8350 hx         1 CH5       0.095256
     34 H83         -4.8170    -0.4570    -6.6070 hx         1 CH5       0.095256
     35 HO2          2.5270    -0.9120    -1.4160 ho         1 CH5       0.400000
     36 HO3          3.7680     0.2470     2.3280 ho         1 CH5       0.398000
@<TRIPOS>BOND
     1     1     2 1
     2     1    14 1
     3     1    17 1
     4     1    18 1
     5     2     3 1
     6     2    10 1
     7     2    19 1
     8     3    11 1
     9     3    20 1
    10     3    21 1
    11     4     5 1
    12     4    15 1
    13     4    22 1
    14     4    23 1
    15     5     9 1
    16     5    24 1
    17     5    25 1
    18     6     9 1
    19     6    26 1
    20     6    27 1
    21     6    28 1
    22     7     9 1
    23     7    29 1
    24     7    30 1
    25     7    31 1
    26     8     9 1
    27     8    32 1
    28     8    33 1
    29     8    34 1
    30    10    35 1
    31    11    36 1
    32    12    16 1
    33    13    16 1
    34    14    16 1
    35    15    16 1
@<TRIPOS>SUBSTRUCTURE
     1 CH5         1 TEMP              0 ****  ****    0 ROOT
