@<TRIPOS>MOLECULE
CH8
   24    25     1     0     0
SMALL
bcc


@<TRIPOS>ATOM
      1 CAF        -0.1710   -0.4000    0.2500 ca        1 CH8     -0.162000
      2 CAD         1.1210    0.0590   -0.0020 ca        1 CH8     -0.103000
      3 CAC         1.9200    0.5280    1.0400 ca        1 CH8     -0.151000
      4 CAE         1.4300    0.5400    2.3480 ca        1 CH8     -0.103000
      5 CAG         0.1440    0.0830    2.6250 ca        1 CH8     -0.162000
      6 CAN        -0.6500   -0.3820    1.5640 ca        1 CH8      0.103100
      7 OAK        -1.9440   -0.7570    1.9210 os        1 CH8     -0.260200
      8 CAO        -2.6100   -1.6000    1.0340 ca        1 CH8      0.006100
      9 CAI        -2.1120   -2.8520    0.6630 ca        1 CH8     -0.105000
     10 CAH        -2.8880   -3.6930   -0.1290 ca        1 CH8     -0.149000
     11 CAL        -4.1600   -3.2800   -0.5430 ca        1 CH8      0.042400
     12 CL1        -5.1000   -4.3150   -1.5090 cl        1 CH8     -0.084400
     13 CAJ        -4.6760   -2.0350   -0.1790 ca        1 CH8     -0.148000
     14 CAM        -3.8910   -1.1850    0.6150 ca        1 CH8      0.138100
     15 OAA        -4.4340    0.0250    0.9630 oh        1 CH8     -0.487100
     16 HAF        -0.8050   -0.7720   -0.5680 ha        1 CH8      0.150000
     17 HAD         1.5080    0.0510   -1.0320 ha        1 CH8      0.137000
     18 HAC         2.9370    0.8900    0.8330 ha        1 CH8      0.136000
     19 HAE         2.0620    0.9100    3.1680 ha        1 CH8      0.137000
     20 HAG        -0.2560    0.0840    3.6480 ha        1 CH8      0.150000
     21 HAI        -1.1100   -3.1590    0.9980 ha        1 CH8      0.155000
     22 HAJ        -5.6750   -1.7060   -0.4990 ha        1 CH8      0.169000
     23 HAA        -3.7800    0.5020    1.5010 ho        1 CH8      0.440000
     24 HAH        -2.5010   -4.6800   -0.4230 ha        1 CH8      0.153000
@<TRIPOS>BOND
     1    1    2 ar  
     2    1    6 ar  
     3    1   16 1   
     4    2    3 ar  
     5    2   17 1   
     6    3    4 ar  
     7    3   18 1   
     8    4    5 ar  
     9    4   19 1   
    10    5    6 ar  
    11    5   20 1   
    12    6    7 1   
    13    7    8 1   
    14    8    9 ar  
    15    8   14 ar  
    16    9   10 ar  
    17    9   21 1   
    18   10   11 ar  
    19   10   24 1   
    20   11   12 1   
    21   11   13 ar  
    22   13   14 ar  
    23   13   22 1   
    24   14   15 1   
    25   15   23 1   
@<TRIPOS>SUBSTRUCTURE
     1 CH8         1 TEMP              0 ****  ****    0 ROOT
