@<TRIPOS>MOLECULE
molecule
   24    25     1     0     0
SMALL
bcc


@<TRIPOS>ATOM
      1 CAF          0.0000     0.0000     0.0000 ca         1 CH8      -0.141000
      2 CAD          1.3810     0.0000     0.0000 ca         1 CH8      -0.117000
      3 CAC          2.0740     0.0000     1.1970 ca         1 CH8      -0.131000
      4 CAE          1.3860    -0.0000     2.3970 ca         1 CH8      -0.117000
      5 CAG          0.0040    -0.0000     2.4020 ca         1 CH8      -0.141000
      6 CAN         -0.6930     0.0000     1.2020 ca         1 CH8       0.096100
      7 OAK         -2.0520     0.0010     1.2040 os         1 CH8      -0.230200
      8 CAO         -2.6920    -1.1100     0.7480 ca         1 CH8       0.122100
      9 CAI         -1.9660    -2.2440     0.4210 ca         1 CH8      -0.190000
     10 CAH         -2.6170    -3.3710    -0.0430 ca         1 CH8      -0.097000
     11 CAL         -3.9930    -3.3710    -0.1810 ca         1 CH8       0.008400
     12 Cl1         -4.8060    -4.7890    -0.7630 cl         1 CH8      -0.105400
     13 CAJ         -4.7240    -2.2420     0.1450 ca         1 CH8      -0.130000
     14 CAM         -4.0770    -1.1110     0.6150 ca         1 CH8       0.092100
     15 OAA         -4.7930    -0.0020     0.9410 oh         1 CH8      -0.499100
     16 HAF         -0.5420     0.0000    -0.9380 ha         1 CH8       0.146000
     17 HAD          1.9230     0.0000    -0.9380 ha         1 CH8       0.136500
     18 HAC          3.1570    -0.0000     1.1950 ha         1 CH8       0.134000
     19 HAE          1.9310    -0.0000     3.3330 ha         1 CH8       0.136500
     20 HAG         -0.5350    -0.0000     3.3420 ha         1 CH8       0.146000
     21 HAI         -0.8880    -2.2470     0.5280 ha         1 CH8       0.157000
     22 HAJ         -5.8020    -2.2440     0.0390 ha         1 CH8       0.157000
     23 HAA         -5.2580    -0.1540     1.7470 ho         1 CH8       0.419000
     24 HAH         -2.0490    -4.2570    -0.2980 ha         1 CH8       0.148000
@<TRIPOS>BOND
     1     1     2 ar
     2     1     6 ar
     3     2     3 ar
     4     3     4 ar
     5     4     5 ar
     6     5     6 ar
     7     6     7 1
     8     7     8 1
     9     8     9 ar
    10     8    14 ar
    11     9    10 ar
    12    10    11 ar
    13    11    12 1
    14    11    13 ar
    15    13    14 ar
    16    14    15 1
    17     1    16 1
    18     2    17 1
    19     3    18 1
    20     4    19 1
    21     5    20 1
    22     9    21 1
    23    13    22 1
    24    15    23 1
    25    10    24 1
@<TRIPOS>SUBSTRUCTURE
     1 CH8         1 TEMP              0 ****  ****    0 ROOT
