@<TRIPOS>MOLECULE
CH9
   23    24     1     0     0
SMALL
bcc


@<TRIPOS>ATOM
      1 CAH         0.0060    0.1290   -0.0080 ca        1 CH9     -0.111000
      2 CAC         1.3990    0.1670   -0.0230 ca        1 CH9     -0.135000
      3 CAB         2.1170    0.0470    1.1660 ca        1 CH9     -0.127000
      4 CAD         1.4360   -0.1170    2.3720 ca        1 CH9     -0.135000
      5 CAI         0.0430   -0.1590    2.3920 ca        1 CH9     -0.111000
      6 CAL        -0.6860   -0.0320    1.2020 cp        1 CH9     -0.029000
      7 CAM        -2.1470   -0.0470    1.2080 cp        1 CH9     -0.059000
      8 CAJ        -2.8550    0.8490    0.3930 ca        1 CH9     -0.090000
      9 CAF        -4.2470    0.8590    0.3650 ca        1 CH9     -0.165000
     10 CAE        -4.9690   -0.0350    1.1550 ca        1 CH9     -0.090000
     11 CAG        -4.2980   -0.9340    1.9780 ca        1 CH9     -0.215000
     12 CAK        -2.8950   -0.9380    2.0090 ca        1 CH9      0.135100
     13 OAA        -2.2020   -1.8060    2.8230 oh        1 CH9     -0.494100
     14 HAH        -0.5540    0.2160   -0.9510 ha        1 CH9      0.138000
     15 HAC         1.9320    0.2900   -0.9770 ha        1 CH9      0.130500
     16 HAB         3.2160    0.0790    1.1530 ha        1 CH9      0.129000
     17 HAD         1.9980   -0.2160    3.3120 ha        1 CH9      0.130500
     18 HAI        -0.4920   -0.3040    3.3440 ha        1 CH9      0.138000
     19 HAJ        -2.2920    1.5610   -0.2310 ha        1 CH9      0.139000
     20 HAF        -4.7770    1.5730   -0.2820 ha        1 CH9      0.135000
     21 HAE        -6.0690   -0.0300    1.1320 ha        1 CH9      0.134000
     22 HAG        -4.8610   -1.6420    2.6030 ha        1 CH9      0.133000
     23 HAA        -2.8430   -2.4120    3.2230 ho        1 CH9      0.418000
@<TRIPOS>BOND
     1    1    2 ar  
     2    1    6 ar  
     3    1   14 1   
     4    2    3 ar  
     5    2   15 1   
     6    3    4 ar  
     7    3   16 1   
     8    4    5 ar  
     9    4   17 1   
    10    5    6 ar  
    11    5   18 1   
    12    6    7 1   
    13    7    8 ar  
    14    7   12 ar  
    15    8    9 ar  
    16    8   19 1   
    17    9   10 ar  
    18    9   20 1   
    19   10   11 ar  
    20   10   21 1   
    21   11   12 ar  
    22   11   22 1   
    23   12   13 1   
    24   13   23 1   
@<TRIPOS>SUBSTRUCTURE
     1 CH9         1 TEMP              0 ****  ****    0 ROOT
