@<TRIPOS>MOLECULE
molecule
   23    24     1     0     0
SMALL
bcc


@<TRIPOS>ATOM
      1 CAH          0.0000     0.0000     0.0000 ca         1 CH9      -0.107500
      2 CAC          1.3800     0.0000     0.0000 ca         1 CH9      -0.132500
      3 CAB          2.0740     0.0000     1.1960 ca         1 CH9      -0.127000
      4 CAD          1.3910     0.0000     2.3990 ca         1 CH9      -0.132500
      5 CAI          0.0110     0.0060     2.4110 ca         1 CH9      -0.107500
      6 CAL         -0.6940     0.0010     1.2090 cp         1 CH9      -0.036000
      7 CAM         -2.1770     0.0010     1.2150 cp         1 CH9      -0.057000
      8 CAJ         -2.8810     0.9230     0.4430 ca         1 CH9      -0.095000
      9 CAF         -4.2610     0.9190     0.4530 ca         1 CH9      -0.150000
     10 CAE         -4.9490    -0.0020     1.2230 ca         1 CH9      -0.102000
     11 CAG         -4.2620    -0.9240     1.9870 ca         1 CH9      -0.192000
     12 CAK         -2.8760    -0.9320     1.9880 ca         1 CH9       0.128100
     13 OAA         -2.2000    -1.8380     2.7390 oh         1 CH9      -0.506100
     14 HAH         -0.5430    -0.0020    -0.9380 ha         1 CH9       0.136500
     15 HAC          1.9210    -0.0000    -0.9390 ha         1 CH9       0.129000
     16 HAB          3.1570    -0.0020     1.1920 ha         1 CH9       0.127000
     17 HAD          1.9400     0.0030     3.3330 ha         1 CH9       0.129000
     18 HAI         -0.5240     0.0070     3.3530 ha         1 CH9       0.136500
     19 HAJ         -2.3450     1.6460    -0.1600 ha         1 CH9       0.139000
     20 HAF         -4.8070     1.6380    -0.1460 ha         1 CH9       0.132000
     21 HAE         -6.0330     0.0010     1.2260 ha         1 CH9       0.131000
     22 HAG         -4.8070    -1.6440     2.5860 ha         1 CH9       0.134000
     23 HAA         -2.5530    -2.6990     2.5860 ho         1 CH9       0.421000
@<TRIPOS>BOND
     1     1     2 ar
     2     1     6 ar
     3     1    14 1
     4     2     3 ar
     5     2    15 1
     6     3     4 ar
     7     3    16 1
     8     4     5 ar
     9     4    17 1
    10     5     6 ar
    11     5    18 1
    12     6     7 1
    13     7     8 ar
    14     7    12 ar
    15     8     9 ar
    16     8    19 1
    17     9    10 ar
    18     9    20 1
    19    10    11 ar
    20    10    21 1
    21    11    12 ar
    22    11    22 1
    23    12    13 1
    24    13    23 1
@<TRIPOS>SUBSTRUCTURE
     1 CH9         1 TEMP              0 ****  ****    0 ROOT
