@<TRIPOS>MOLECULE
CHA
   31    31     1     0     0
SMALL
bcc


@<TRIPOS>ATOM
      1 C1           0.0000     0.0000     0.0000 c3         1 CHA       0.216400
      2 C2           1.5300     0.0000     0.0000 c3         1 CHA      -0.093500
      3 C3           2.0420     0.0000     1.4410 c3         1 CHA      -0.037400
      4 C1'          3.5700    -0.0010     1.4390 c3         1 CHA      -0.069700
      5 C2'          4.0830     0.0000     2.8810 c3         1 CHA      -0.020900
      6 C3'          5.6130    -0.0010     2.8790 c3         1 CHA      -0.020900
      7 C4'          6.1210    -1.2500     2.1590 c3         1 CHA      -0.025400
      8 C5'          5.6090    -1.2510     0.7180 c3         1 CHA      -0.020900
      9 C6'          4.0800    -1.2500     0.7190 c3         1 CHA      -0.020900
     10 N2           2.0200     1.1980    -0.6940 nz         1 CHA       0.064400
     11 O1          -0.4780     0.0000    -1.3460 oh         1 CHA      -0.616800
     12 H11         -0.3610     0.8840     0.5110 h1         1 CHA       0.026200
     13 H12         -0.3610    -0.8850     0.5110 h1         1 CHA       0.026200
     14 H2           1.8910    -0.8850    -0.5110 hx         1 CHA       0.110700
     15 H31          1.6820     0.8850     1.9520 hc         1 CHA       0.054200
     16 H32          1.6810    -0.8840     1.9520 hc         1 CHA       0.054200
     17 H1'          3.9360     0.8820     0.9290 hc         1 CHA       0.004700
     18 H2'1         3.7240     0.8870     3.3900 hc         1 CHA       0.019950
     19 H2'2         3.7230    -0.8850     3.3910 hc         1 CHA       0.019950
     20 H3'1         5.9740    -0.0040     3.9010 hc         1 CHA       0.023450
     21 H3'2         5.9730     0.8820     2.3660 hc         1 CHA       0.023450
     22 H4'1         5.7570    -2.1330     2.6700 hc         1 CHA       0.029200
     23 H4'2         7.2040    -1.2480     2.1560 hc         1 CHA       0.029200
     24 H5'1         5.9680    -2.1380     0.2090 hc         1 CHA       0.023450
     25 H5'2         5.9690    -0.3660     0.2080 hc         1 CHA       0.023450
     26 H6'1         3.7200    -2.1330     1.2320 hc         1 CHA       0.019950
     27 H6'2         3.7190    -1.2480    -0.3030 hc         1 CHA       0.019950
     28 HN21         2.6860     0.9310    -1.3910 hn         1 CHA       0.231800
     29 HN22         1.2510     1.6690    -1.1300 hn         1 CHA       0.231800
     30 HO1         -1.3920    -0.2300    -1.3560 ho         1 CHA       0.446000
     31 H23          2.4600     1.8090    -0.0350 hn         1 CHA       0.231800
@<TRIPOS>BOND
     1     1     2 1   
     2     1    11 1   
     3     1    12 1   
     4     1    13 1   
     5     2     3 1   
     6     2    10 1   
     7     2    14 1   
     8     3     4 1   
     9     3    15 1   
    10     3    16 1   
    11     4     5 1   
    12     4     9 1   
    13     4    17 1   
    14     5     6 1   
    15     5    18 1   
    16     5    19 1   
    17     6     7 1   
    18     6    20 1   
    19     6    21 1   
    20     7     8 1   
    21     7    22 1   
    22     7    23 1   
    23     8     9 1   
    24     8    24 1   
    25     8    25 1   
    26     9    26 1   
    27     9    27 1   
    28    10    28 1   
    29    10    29 1   
    30    10    31 1   
    31    11    30 1   
@<TRIPOS>SUBSTRUCTURE
     1 CHA         1 TEMP              0 ****  ****    0 ROOT
