@<TRIPOS>MOLECULE
molecule
   15    15     1     0     0
SMALL
bcc


@<TRIPOS>ATOM
      1 C1           0.0000     0.0000     0.0000 ca         1 CHB      -0.098600
      2 C2           1.3980     0.0000     0.0000 ca         1 CHB      -0.080000
      3 C3           2.0840     0.0000     1.1940 ca         1 CHB      -0.012600
      4 Cl3          3.8200     0.0040     1.1940 cl         1 CHB      -0.148400
      5 C4           1.3900    -0.0080     2.3970 ca         1 CHB       0.073100
      6 O4           2.0700    -0.0130     3.5720 oh         1 CHB      -0.526100
      7 C5          -0.0000    -0.0130     2.4020 ca         1 CHB      -0.178000
      8 C6          -0.6940    -0.0080     1.2140 ca         1 CHB      -0.096000
      9 C7          -0.7410     0.0060    -1.2740 c          1 CHB       0.881200
     10 O1          -1.9560     0.0020    -1.2710 o          1 CHB      -0.831300
     11 O2          -0.0700     0.0140    -2.4430 o          1 CHB      -0.831300
     12 H2           1.9400     0.0060    -0.9380 ha         1 CHB       0.172000
     13 HO4          2.1500     0.8700     3.8930 ho         1 CHB       0.403000
     14 H5          -0.5380    -0.0190     3.3430 ha         1 CHB       0.120000
     15 H6          -1.7780    -0.0100     1.2190 ha         1 CHB       0.152000
@<TRIPOS>BOND
     1     1     2 ar
     2     1     8 ar
     3     1     9 1
     4     2     3 ar
     5     2    12 1
     6     3     4 1
     7     3     5 ar
     8     5     6 1
     9     5     7 ar
    10     6    13 1
    11     7     8 ar
    12     7    14 1
    13     8    15 1
    14     9    10 1
    15     9    11 1
@<TRIPOS>SUBSTRUCTURE
     1 CHB         1 TEMP              0 ****  ****    0 ROOT
