@<TRIPOS>MOLECULE
CHB
   15    15     1     0     0
SMALL
bcc


@<TRIPOS>ATOM
      1 C1         -0.0060    0.0050   -0.0080 ca        1 CHB     -0.149600
      2 C2          1.3870    0.0840    0.0400 ca        1 CHB     -0.066000
      3 C3          2.0440    0.1410    1.2710 ca        1 CHB     -0.080600
      4 CL3         3.7560    0.2370    1.3110 cl        1 CHB     -0.155400
      5 C4          1.3050    0.1190    2.4650 ca        1 CHB      0.097100
      6 O4          1.8710    0.1710    3.7240 oh        1 CHB     -0.517100
      7 C5         -0.0960    0.0400    2.4180 ca        1 CHB     -0.181000
      8 C6         -0.7370   -0.0170    1.1850 ca        1 CHB     -0.075000
      9 C7         -0.7240   -0.0570   -1.3500 c         1 CHB      0.912200
     10 O1         -1.9850   -0.1260   -1.3370 o         1 CHB     -0.827800
     11 O2         -0.0190   -0.0370   -2.3970 o         1 CHB     -0.827800
     12 H2          1.9450    0.0990   -0.9120 ha        1 CHB      0.169000
     13 HO4         2.8310    0.2230    3.6120 ho        1 CHB      0.412000
     14 H5         -0.6610    0.0230    3.3590 ha        1 CHB      0.129000
     15 H6         -1.8360   -0.0790    1.1190 ha        1 CHB      0.159000
@<TRIPOS>BOND
     1    1    2 ar  
     2    1    8 ar  
     3    1    9 1   
     4    2    3 ar  
     5    2   12 1   
     6    3    4 1   
     7    3    5 ar  
     8    5    6 1   
     9    5    7 ar  
    10    6   13 1   
    11    7    8 ar  
    12    7   14 1   
    13    8   15 1   
    14    9   10 1   
    15    9   11 1   
@<TRIPOS>SUBSTRUCTURE
     1 CHB         1 TEMP              0 ****  ****    0 ROOT
