@<TRIPOS>MOLECULE
molecule
   68    71     1     0     0
SMALL
bcc


@<TRIPOS>ATOM
      1 C1           0.0000     0.0000     0.0000 c3         1 CHD      -0.069400
      2 C2           1.5300     0.0000     0.0000 c3         1 CHD      -0.095400
      3 C3           2.0400     0.0000     1.4420 c3         1 CHD       0.147100
      4 O3           3.4690     0.0010     1.4400 oh         1 CHD      -0.604800
      5 C4           1.5300     1.2470     2.1630 c3         1 CHD      -0.097400
      6 C5          -0.0000     1.2480     2.1640 c3         1 CHD      -0.044700
      7 C6          -0.5090     2.4960     2.8870 c3         1 CHD      -0.095400
      8 C7          -0.0050     3.7470     2.1650 c3         1 CHD       0.151100
      9 O7           1.4230     3.7500     2.1600 oh         1 CHD      -0.594800
     10 C8          -0.5190     3.7470     0.7250 c3         1 CHD      -0.064700
     11 C9          -0.0130     2.4980    -0.0120 c3         1 CHD      -0.047700
     12 C10         -0.5100     1.2500     0.7200 c3         1 CHD      -0.057000
     13 C11         -0.4770     2.4690    -1.4640 c3         1 CHD      -0.095400
     14 C12         -0.0790     3.7560    -2.2040 c3         1 CHD       0.157100
     15 O12          1.3440     3.8810    -2.2320 oh         1 CHD      -0.600800
     16 C13         -0.6230     4.9460    -1.4430 c3         1 CHD      -0.065000
     17 C14          0.0080     4.9560    -0.0240 c3         1 CHD      -0.065700
     18 C15         -0.4430     6.3210     0.5080 c3         1 CHD      -0.084400
     19 C16         -0.2530     7.2520    -0.7210 c3         1 CHD      -0.073400
     20 C17         -0.3160     6.3430    -1.9720 c3         1 CHD      -0.046700
     21 C18         -2.1320     4.7870    -1.2460 c3         1 CHD      -0.097100
     22 C19         -2.0400     1.2520     0.7190 c3         1 CHD      -0.089100
     23 C20         -1.4290     6.8110    -2.9110 c3         1 CHD      -0.079700
     24 C21         -1.5200     5.8610    -4.1080 c3         1 CHD      -0.095100
     25 C22         -1.1200     8.2240    -3.4060 c3         1 CHD      -0.060400
     26 C23         -2.2320     8.6930    -4.3450 c3         1 CHD      -0.184400
     27 O25         -0.9210    10.6470    -4.4660 o          1 CHD      -0.857800
     28 C24         -1.9270    10.0850    -4.8320 c          1 CHD       0.890600
     29 O26         -2.7710    10.7030    -5.6730 o          1 CHD      -0.857800
     30 H11         -0.3600     0.0020    -1.0220 hc         1 CHD       0.038700
     31 H12A        -0.3600    -0.8830     0.5130 hc         1 CHD       0.038700
     32 H21          1.8900    -0.8860    -0.5090 hc         1 CHD       0.053200
     33 H22          1.8900     0.8860    -0.5090 hc         1 CHD       0.053200
     34 H3           1.6760    -0.8840     1.9520 h1         1 CHD       0.015700
     35 HO3          3.7850    -0.7950     1.8350 ho         1 CHD       0.390000
     36 H41          1.8890     2.1310     1.6500 hc         1 CHD       0.075700
     37 H42          1.8900     1.2440     3.1840 hc         1 CHD       0.075700
     38 H5          -0.3610     0.3630     2.6730 hc         1 CHD       0.036700
     39 H61         -1.5930     2.4940     2.8880 hc         1 CHD       0.041700
     40 H62         -0.1420     2.4960     3.9060 hc         1 CHD       0.041700
     41 H7          -0.3700     4.6290     2.6770 h1         1 CHD       0.031700
     42 HO7          1.7390     4.3700     2.7970 ho         1 CHD       0.391000
     43 H8          -1.6020     3.7600     0.7230 hc         1 CHD       0.065700
     44 H9           1.0700     2.5010     0.0050 hc         1 CHD       0.086700
     45 H111        -0.0240     1.6210    -1.9620 hc         1 CHD       0.042700
     46 H112        -1.5550     2.3670    -1.4880 hc         1 CHD       0.042700
     47 H12         -0.4780     3.7450    -3.2110 h1         1 CHD       0.048700
     48 HO12         1.6620     3.6670    -3.0940 ho         1 CHD       0.393000
     49 H14          1.0890     4.9170    -0.0930 hc         1 CHD       0.086700
     50 H151        -1.4840     6.2900     0.8060 hc         1 CHD       0.032700
     51 H152         0.1890     6.6390     1.3290 hc         1 CHD       0.032700
     52 H161         0.7110     7.7430    -0.6680 hc         1 CHD       0.051700
     53 H162        -1.0490     7.9860    -0.7550 hc         1 CHD       0.051700
     54 H17          0.6390     6.3460    -2.4840 hc         1 CHD       0.063700
     55 H181        -2.5270     5.6660    -0.7520 hc         1 CHD       0.038033
     56 H182        -2.6120     4.6680    -2.2110 hc         1 CHD       0.038033
     57 H183        -2.3270     3.9120    -0.6370 hc         1 CHD       0.038033
     58 H191        -2.4030     0.4670     1.3710 hc         1 CHD       0.033700
     59 H192        -2.4000     2.2110     1.0720 hc         1 CHD       0.033700
     60 H193        -2.4000     1.0800    -0.2880 hc         1 CHD       0.033700
     61 H20         -2.3730     6.8130    -2.3790 hc         1 CHD       0.043700
     62 H211        -0.7850     6.1460    -4.8510 hc         1 CHD       0.029033
     63 H212        -2.5120     5.9180    -4.5400 hc         1 CHD       0.029033
     64 H213        -1.3270     4.8470    -3.7790 hc         1 CHD       0.029033
     65 H221        -0.1760     8.2220    -3.9380 hc         1 CHD       0.047200
     66 H222        -1.0550     8.8970    -2.5600 hc         1 CHD       0.047200
     67 H231        -2.2970     8.0200    -5.1920 hc         1 CHD       0.027200
     68 H232        -3.1760     8.6950    -3.8130 hc         1 CHD       0.027200
@<TRIPOS>BOND
     1     1     2 1
     2     1    12 1
     3     1    30 1
     4     1    31 1
     5     2     3 1
     6     2    32 1
     7     2    33 1
     8     3     4 1
     9     3     5 1
    10     3    34 1
    11     4    35 1
    12     5     6 1
    13     5    36 1
    14     5    37 1
    15     6     7 1
    16     6    12 1
    17     6    38 1
    18     7     8 1
    19     7    39 1
    20     7    40 1
    21     8     9 1
    22     8    10 1
    23     8    41 1
    24     9    42 1
    25    10    11 1
    26    10    17 1
    27    10    43 1
    28    11    12 1
    29    11    13 1
    30    11    44 1
    31    12    22 1
    32    13    14 1
    33    13    45 1
    34    13    46 1
    35    14    15 1
    36    14    16 1
    37    14    47 1
    38    15    48 1
    39    16    17 1
    40    16    20 1
    41    16    21 1
    42    17    18 1
    43    17    49 1
    44    18    19 1
    45    18    50 1
    46    18    51 1
    47    19    20 1
    48    19    52 1
    49    19    53 1
    50    20    23 1
    51    20    54 1
    52    21    55 1
    53    21    56 1
    54    21    57 1
    55    22    58 1
    56    22    59 1
    57    22    60 1
    58    23    24 1
    59    23    25 1
    60    23    61 1
    61    24    62 1
    62    24    63 1
    63    24    64 1
    64    25    26 1
    65    25    65 1
    66    25    66 1
    67    26    28 1
    68    26    67 1
    69    26    68 1
    70    27    28 1
    71    28    29 1
@<TRIPOS>SUBSTRUCTURE
     1 CHD         1 TEMP              0 ****  ****    0 ROOT
