@<TRIPOS>MOLECULE
CHD
   68    71     1     0     0
SMALL
bcc


@<TRIPOS>ATOM
      1 C1          0.0630   -0.0750    0.1190 c3        1 CHD     -0.072400
      2 C2          1.5670   -0.1890    0.0630 c3        1 CHD     -0.077400
      3 C3          2.1380   -0.1510    1.4760 c3        1 CHD      0.144100
      4 O3          3.5530   -0.2480    1.3550 oh        1 CHD     -0.604800
      5 C4          1.7130    1.1280    2.1820 c3        1 CHD     -0.120400
      6 C5          0.1990    1.2800    2.2130 c3        1 CHD     -0.037700
      7 C6         -0.1820    2.5610    2.9390 c3        1 CHD     -0.106400
      8 C7          0.0580    3.8330    2.1310 c3        1 CHD      0.144100
      9 O7          1.4470    4.1090    1.9850 oh        1 CHD     -0.587800
     10 C8         -0.5710    3.7300    0.7380 c3        1 CHD     -0.034700
     11 C9         -0.0950    2.4660    0.0090 c3        1 CHD     -0.044700
     12 C10        -0.4420    1.1990    0.8110 c3        1 CHD     -0.036000
     13 C11        -0.6020    2.4060   -1.4270 c3        1 CHD     -0.103400
     14 C12        -0.3890    3.6920   -2.2390 c3        1 CHD      0.152100
     15 O12         0.9940    3.9080   -2.4950 oh        1 CHD     -0.587800
     16 C13        -0.9380    4.9060   -1.4830 c3        1 CHD     -0.039000
     17 C14        -0.2280    4.9370   -0.1090 c3        1 CHD     -0.068700
     18 C15        -0.5380    6.3230    0.4380 c3        1 CHD     -0.071400
     19 C16        -0.6200    7.2160   -0.8020 c3        1 CHD     -0.078400
     20 C17        -0.5680    6.3030   -2.0430 c3        1 CHD     -0.047700
     21 C18        -2.4480    4.7790   -1.3660 c3        1 CHD     -0.087100
     22 C19        -1.9510    1.0280    0.9720 c3        1 CHD     -0.089100
     23 C20        -1.4240    6.8410   -3.1850 c3        1 CHD     -0.060700
     24 C21        -1.3650    5.9310   -4.3970 c3        1 CHD     -0.087100
     25 C22        -0.9670    8.2470   -3.5740 c3        1 CHD     -0.068400
     26 C23        -1.9860    8.9840   -4.4100 c3        1 CHD     -0.195400
     27 O25        -1.3920   11.0860   -3.3770 o         1 CHD     -0.852800
     28 C24        -1.6890   10.4950   -4.4560 c         1 CHD      0.907600
     29 O26        -1.7810   11.0760   -5.5750 o         1 CHD     -0.852800
     30 H11        -0.3440   -0.9610    0.6790 hc        1 CHD      0.038700
     31 H12A       -0.3560   -0.1280   -0.9190 hc        1 CHD      0.038700
     32 H21         1.8630   -1.1510   -0.4300 hc        1 CHD      0.055200
     33 H22         2.0090    0.6470   -0.5390 hc        1 CHD      0.055200
     34 H3          1.7780   -1.0470    2.0590 h1        1 CHD      0.025700
     35 HO3         3.9330    0.1170    2.1620 ho        1 CHD      0.397000
     36 H41         2.1780    2.0100    1.6650 hc        1 CHD      0.057200
     37 H42         2.0990    1.1150    3.2360 hc        1 CHD      0.057200
     38 H5         -0.2130    0.4150    2.8120 hc        1 CHD      0.035700
     39 H61        -1.2710    2.5180    3.2040 hc        1 CHD      0.039200
     40 H62         0.3970    2.6230    3.8980 hc        1 CHD      0.039200
     41 H7         -0.4210    4.7020    2.6720 h1        1 CHD      0.032700
     42 HO7         1.7930    4.2340    2.8760 ho        1 CHD      0.389000
     43 H8         -1.6840    3.6890    0.8970 hc        1 CHD      0.050700
     44 H9          1.0320    2.5370   -0.0460 hc        1 CHD      0.073700
     45 H111       -0.0640    1.5780   -1.9610 hc        1 CHD      0.036700
     46 H112       -1.6950    2.1650   -1.4400 hc        1 CHD      0.036700
     47 H12        -0.9260    3.5810   -3.2250 h1        1 CHD      0.036700
     48 HO12        1.2980    3.1480   -3.0040 ho        1 CHD      0.388000
     49 H14         0.8860    4.8960   -0.3060 hc        1 CHD      0.085700
     50 H151        0.2620    6.6630    1.1390 hc        1 CHD      0.030700
     51 H152       -1.5060    6.3270    0.9980 hc        1 CHD      0.030700
     52 H161        0.2320    7.9390   -0.8260 hc        1 CHD      0.055700
     53 H162       -1.5680    7.8100   -0.7920 hc        1 CHD      0.055700
     54 H17         0.4950    6.2440   -2.4090 hc        1 CHD      0.066700
     55 H181       -2.9130    4.7400   -2.3810 hc        1 CHD      0.034700
     56 H182       -2.8590    5.6640   -0.8210 hc        1 CHD      0.034700
     57 H183       -2.7490    3.8560   -0.8150 hc        1 CHD      0.034700
     58 H191       -2.1710    0.1400    1.6160 hc        1 CHD      0.033700
     59 H192       -2.4170    1.9230    1.4460 hc        1 CHD      0.033700
     60 H193       -2.4320    0.8640   -0.0220 hc        1 CHD      0.033700
     61 H20        -2.4930    6.9090   -2.8360 hc        1 CHD      0.039700
     62 H211       -1.7180    6.4780   -5.3050 hc        1 CHD      0.025033
     63 H212       -2.0170    5.0340   -4.2600 hc        1 CHD      0.025033
     64 H213       -0.3190    5.5820   -4.5760 hc        1 CHD      0.025033
     65 H221       -0.7750    8.8610   -2.6530 hc        1 CHD      0.048700
     66 H222        0.0020    8.1760   -4.1330 hc        1 CHD      0.048700
     67 H231       -3.0090    8.8570   -3.9720 hc        1 CHD      0.018700
     68 H232       -2.0080    8.5860   -5.4550 hc        1 CHD      0.018700
@<TRIPOS>BOND
     1    1    2 1   
     2    1   12 1   
     3    1   30 1   
     4    1   31 1   
     5    2    3 1   
     6    2   32 1   
     7    2   33 1   
     8    3    4 1   
     9    3    5 1   
    10    3   34 1   
    11    4   35 1   
    12    5    6 1   
    13    5   36 1   
    14    5   37 1   
    15    6    7 1   
    16    6   12 1   
    17    6   38 1   
    18    7    8 1   
    19    7   39 1   
    20    7   40 1   
    21    8    9 1   
    22    8   10 1   
    23    8   41 1   
    24    9   42 1   
    25   10   11 1   
    26   10   17 1   
    27   10   43 1   
    28   11   12 1   
    29   11   13 1   
    30   11   44 1   
    31   12   22 1   
    32   13   14 1   
    33   13   45 1   
    34   13   46 1   
    35   14   15 1   
    36   14   16 1   
    37   14   47 1   
    38   15   48 1   
    39   16   17 1   
    40   16   20 1   
    41   16   21 1   
    42   17   18 1   
    43   17   49 1   
    44   18   19 1   
    45   18   50 1   
    46   18   51 1   
    47   19   20 1   
    48   19   52 1   
    49   19   53 1   
    50   20   23 1   
    51   20   54 1   
    52   21   55 1   
    53   21   56 1   
    54   21   57 1   
    55   22   58 1   
    56   22   59 1   
    57   22   60 1   
    58   23   24 1   
    59   23   25 1   
    60   23   61 1   
    61   24   62 1   
    62   24   63 1   
    63   24   64 1   
    64   25   26 1   
    65   25   65 1   
    66   25   66 1   
    67   26   28 1   
    68   26   67 1   
    69   26   68 1   
    70   27   28 1   
    71   28   29 1   
@<TRIPOS>SUBSTRUCTURE
     1 CHD         1 TEMP              0 ****  ****    0 ROOT
