@<TRIPOS>MOLECULE
molecule
   28    27     1     0     0
SMALL
bcc


@<TRIPOS>ATOM
      1 O7           0.0000     0.0000     0.0000 o          1 CHH      -0.518100
      2 C5           1.2070     0.0000     0.0000 c          1 CHH       0.567100
      3 C6           1.9610     0.0000     1.3050 c3         1 CHH      -0.189100
      4 C4           1.9610    -0.0000    -1.3050 c3         1 CHH      -0.184400
      5 C3           0.9660    -0.0000    -2.4680 c3         1 CHH      -0.100400
      6 C2           1.7310    -0.0000    -3.7940 c3         1 CHH       0.099800
      7 N1           0.7770    -0.0000    -4.9100 n4         1 CHH      -0.575800
      8 C9          -0.0680     1.1990    -4.8320 c3         1 CHH       0.092767
      9 C10          1.5110    -0.0000    -6.1820 c3         1 CHH       0.092767
     10 C8          -0.0680    -1.1990    -4.8320 c3         1 CHH       0.092767
     11 H61          2.5850    -0.8830     1.3610 hc         1 CHH       0.074367
     12 H62          1.2570    -0.0020     2.1280 hc         1 CHH       0.074367
     13 H63          2.5820     0.8860     1.3630 hc         1 CHH       0.074367
     14 H41          2.5840    -0.8850    -1.3630 hc         1 CHH       0.076700
     15 H42          2.5840     0.8850    -1.3630 hc         1 CHH       0.076700
     16 H31          0.3440    -0.8850    -2.4110 hc         1 CHH       0.074700
     17 H32          0.3440     0.8850    -2.4110 hc         1 CHH       0.074700
     18 H21          2.3540     0.8850    -3.8510 hx         1 CHH       0.099700
     19 H22          2.3540    -0.8850    -3.8510 hx         1 CHH       0.099700
     20 H91         -0.5180     1.3870    -5.7990 hx         1 CHH       0.099589
     21 H92          0.5390     2.0500    -4.5440 hx         1 CHH       0.099589
     22 H93         -0.8460     1.0450    -4.0940 hx         1 CHH       0.099589
     23 H101         0.8070    -0.0000    -7.0050 hx         1 CHH       0.099589
     24 H102         2.1340     0.8850    -6.2390 hx         1 CHH       0.099589
     25 H103         2.1340    -0.8840    -6.2390 hx         1 CHH       0.099589
     26 H81         -0.5180    -1.3870    -5.7990 hx         1 CHH       0.099589
     27 H82         -0.8460    -1.0450    -4.0940 hx         1 CHH       0.099589
     28 H83          0.5390    -2.0500    -4.5440 hx         1 CHH       0.099589
@<TRIPOS>BOND
     1     1     2 2
     2     2     3 1
     3     2     4 1
     4     3    11 1
     5     3    12 1
     6     3    13 1
     7     4     5 1
     8     4    14 1
     9     4    15 1
    10     5     6 1
    11     5    16 1
    12     5    17 1
    13     6     7 1
    14     6    18 1
    15     6    19 1
    16     7     8 1
    17     7     9 1
    18     7    10 1
    19     8    20 1
    20     8    21 1
    21     8    22 1
    22     9    23 1
    23     9    24 1
    24     9    25 1
    25    10    26 1
    26    10    27 1
    27    10    28 1
@<TRIPOS>SUBSTRUCTURE
     1 CHH         1 TEMP              0 ****  ****    0 ROOT
