@<TRIPOS>MOLECULE
molecule
   54    57     1     0     0
SMALL
bcc


@<TRIPOS>ATOM
      1 Cl1          0.0000     0.0000     0.0000 cl         1 CHI      -0.112400
      2 C1           1.7370     0.0000     0.0000 ca         1 CHI      -0.001600
      3 C2           2.4250     0.0000     1.2060 ca         1 CHI      -0.092000
      4 C3           3.8020     0.0010     1.2280 ca         1 CHI      -0.139000
      5 C4           4.5130     0.0000     0.0310 ca         1 CHI      -0.027200
      6 N1           5.8560    -0.0000    -0.2650 na         1 CHI      -0.174400
      7 C5           3.8130     0.0000    -1.1900 ca         1 CHI      -0.114800
      8 C6           2.4130     0.0000    -1.1870 ca         1 CHI      -0.062000
      9 C7           4.7840     0.0050    -2.2210 cc         1 CHI      -0.100200
     10 C8           6.0100    -0.0010    -1.6380 cd         1 CHI      -0.134300
     11 C9           7.2950    -0.0010    -2.3510 c          1 CHI       0.695300
     12 O1           7.3140    -0.0010    -3.5670 o          1 CHI      -0.588100
     13 N2           8.4500    -0.0010    -1.6590 ns         1 CHI      -0.572900
     14 C10          9.7300    -0.0010    -2.3720 c3         1 CHI       0.047700
     15 C11         10.7670    -0.7120    -1.5390 c          1 CHI       0.658100
     16 O2          10.6150    -0.8180    -0.3410 o          1 CHI      -0.617100
     17 N3          11.8640    -1.2290    -2.1280 n          1 CHI      -0.485800
     18 C12         12.0780    -1.0820    -3.5740 c3         1 CHI       0.100500
     19 C13         12.3180    -2.4670    -4.1810 c3         1 CHI      -0.110400
     20 C14         13.4700    -3.1510    -3.4410 c3         1 CHI       0.148100
     21 O3          13.7170    -4.4320    -4.0260 oh         1 CHI      -0.600800
     22 C15         13.0990    -3.3270    -1.9670 c3         1 CHI      -0.110400
     23 C16         12.8690    -1.9520    -1.3350 c3         1 CHI       0.100500
     24 C17         10.1760     1.4400    -2.6190 c3         1 CHI      -0.043100
     25 C18          9.2110     2.1090    -3.5630 ca         1 CHI      -0.094300
     26 C19          8.1090     2.7790    -3.0650 ca         1 CHI      -0.092000
     27 C20          7.2240     3.3930    -3.9300 ca         1 CHI      -0.156500
     28 C21          7.4390     3.3360    -5.2960 ca         1 CHI       0.138900
     29 F1           6.5740     3.9360    -6.1430 f          1 CHI      -0.142900
     30 C22          8.5420     2.6650    -5.7940 ca         1 CHI      -0.156500
     31 C23          9.4300     2.0570    -4.9270 ca         1 CHI      -0.092000
     32 H21          1.8740     0.0020     2.1380 ha         1 CHI       0.146000
     33 H31          4.3300     0.0010     2.1740 ha         1 CHI       0.135000
     34 HN1          6.6010    -0.0040     0.4040 hn         1 CHI       0.301700
     35 H61          1.8680    -0.0780    -2.1200 ha         1 CHI       0.149000
     36 H7           4.5830     0.0060    -3.2860 ha         1 CHI       0.175000
     37 HN2          8.4340    -0.0530    -0.6600 hn         1 CHI       0.328500
     38 H101         9.6150    -0.5120    -3.3200 h1         1 CHI       0.099700
     39 H121        11.2010    -0.6350    -4.0260 h1         1 CHI       0.059700
     40 H122        12.9440    -0.4550    -3.7500 h1         1 CHI       0.059700
     41 H131        12.5740    -2.3630    -5.2280 hc         1 CHI       0.063950
     42 H132        11.4190    -3.0650    -4.0810 hc         1 CHI       0.063950
     43 H14         14.3590    -2.5380    -3.5160 h1         1 CHI       0.029700
     44 HO3         14.6150    -4.4810    -4.3090 ho         1 CHI       0.403000
     45 H151        13.9070    -3.8310    -1.4500 hc         1 CHI       0.063950
     46 H152        12.1920    -3.9150    -1.8910 hc         1 CHI       0.063950
     47 H161        13.7970    -1.3940    -1.3320 h1         1 CHI       0.059700
     48 H162        12.5090    -2.0750    -0.3200 h1         1 CHI       0.059700
     49 H171        11.1680     1.4420    -3.0550 hc         1 CHI       0.060200
     50 H172        10.1940     1.9790    -1.6790 hc         1 CHI       0.060200
     51 H191         7.9400     2.8240    -1.9960 ha         1 CHI       0.130000
     52 H201         6.3610     3.9180    -3.5390 ha         1 CHI       0.144000
     53 H221         8.7130     2.6220    -6.8630 ha         1 CHI       0.144000
     54 H231        10.2940     1.5320    -5.3160 ha         1 CHI       0.130000
@<TRIPOS>BOND
     1     1     2 1
     2     2     3 ar
     3     2     8 ar
     4     3     4 ar
     5     3    32 1
     6     4     5 ar
     7     4    33 1
     8     5     6 1
     9     5     7 ar
    10     6    10 1
    11     6    34 1
    12     7     8 ar
    13     7     9 1
    14     8    35 1
    15     9    10 2
    16     9    36 1
    17    10    11 1
    18    11    12 2
    19    11    13 1
    20    13    14 1
    21    13    37 1
    22    14    15 1
    23    14    24 1
    24    14    38 1
    25    15    16 2
    26    15    17 1
    27    17    18 1
    28    17    23 1
    29    18    19 1
    30    18    39 1
    31    18    40 1
    32    19    20 1
    33    19    41 1
    34    19    42 1
    35    20    21 1
    36    20    22 1
    37    20    43 1
    38    21    44 1
    39    22    23 1
    40    22    45 1
    41    22    46 1
    42    23    47 1
    43    23    48 1
    44    24    25 1
    45    24    49 1
    46    24    50 1
    47    25    26 ar
    48    25    31 ar
    49    26    27 ar
    50    26    51 1
    51    27    28 ar
    52    27    52 1
    53    28    29 1
    54    28    30 ar
    55    30    31 ar
    56    30    53 1
    57    31    54 1
@<TRIPOS>SUBSTRUCTURE
     1 CHI         1 TEMP              0 ****  ****    0 ROOT
