@<TRIPOS>MOLECULE
molecule
   32    34     1     0     0
SMALL
bcc


@<TRIPOS>ATOM
      1 C1           0.0000     0.0000     0.0000 ca         1 CHJ      -0.181000
      2 C2           1.3940     0.0000     0.0000 ca         1 CHJ       0.147100
      3 O13          2.0670    -0.0000    -1.1790 os         1 CHJ      -0.227200
      4 C14          1.9870     1.1110    -1.9600 ca         1 CHJ       0.116100
      5 C15          2.5460     1.1090    -3.2340 ca         1 CHJ       0.098100
      6 O20          3.1730    -0.0030    -3.7020 oh         1 CHJ      -0.499100
      7 C16          2.4620     2.2430    -4.0270 ca         1 CHJ      -0.130000
      8 C17          1.8230     3.3740    -3.5490 ca         1 CHJ       0.012400
      9 Cl1          1.7190     4.7940    -4.5420 cl         1 CHJ      -0.100400
     10 C18          1.2670     3.3750    -2.2820 ca         1 CHJ      -0.096000
     11 C19          1.3440     2.2450    -1.4900 ca         1 CHJ      -0.188000
     12 C3           2.0990     0.0000     1.1930 ca         1 CHJ      -0.155000
     13 C4           1.4120     0.0000     2.3980 ca         1 CHJ       0.180100
     14 C5           0.0050    -0.0000     2.3920 ca         1 CHJ      -0.160800
     15 C6          -0.6910     0.0050     1.1760 ca         1 CHJ      -0.063000
     16 C7          -0.7100    -0.0000     3.6700 cc         1 CHJ       0.021600
     17 C12         -2.2160    -0.0010     3.7140 c3         1 CHJ      -0.060900
     18 C8           0.0210    -0.0000     4.8140 cd         1 CHJ      -0.275200
     19 C9           1.4300     0.0010     4.7460 c          1 CHJ       0.739800
     20 O10          2.0740     0.0000     5.7800 o          1 CHJ      -0.573500
     21 O11          2.0790    -0.0000     3.5720 os         1 CHJ      -0.304200
     22 H1          -0.5380    -0.0160    -0.9400 ha         1 CHJ       0.155000
     23 H2           4.1040     0.1450    -3.7210 ho         1 CHJ       0.422000
     24 H3           2.8970     2.2440    -5.0190 ha         1 CHJ       0.160000
     25 H4           0.7660     4.2610    -1.9130 ha         1 CHJ       0.150000
     26 H5           0.9080     2.2480    -0.4980 ha         1 CHJ       0.154000
     27 H6           3.1820    -0.0000     1.1850 ha         1 CHJ       0.170000
     28 H7          -1.7740     0.0050     1.1700 ha         1 CHJ       0.146000
     29 H8          -2.5920     0.8890     3.2240 hc         1 CHJ       0.056367
     30 H9          -2.5920    -0.8790     3.2030 hc         1 CHJ       0.056367
     31 H10         -2.5470    -0.0130     4.7450 hc         1 CHJ       0.056367
     32 H11         -0.4750     0.0840     5.7740 ha         1 CHJ       0.172000
@<TRIPOS>BOND
     1    17    16 1
     2     6     5 1
     3    15     1 ar
     4    15    14 ar
     5     7     5 ar
     6     7     8 ar
     7     1     2 ar
     8     5     4 ar
     9    16    14 1
    10    16    18 2
    11     9     8 1
    12    14    13 ar
    13     8    10 ar
    14    18    19 1
    15     2     3 1
    16     2    12 ar
    17     4     3 1
    18     4    11 ar
    19    10    11 ar
    20    13    12 ar
    21    13    21 1
    22    19    21 1
    23    19    20 2
    24     1    22 1
    25     6    23 1
    26     7    24 1
    27    10    25 1
    28    11    26 1
    29    12    27 1
    30    15    28 1
    31    17    29 1
    32    17    30 1
    33    17    31 1
    34    18    32 1
@<TRIPOS>SUBSTRUCTURE
     1 CHJ         1 TEMP              0 ****  ****    0 ROOT
