@<TRIPOS>MOLECULE
CHJ
   32    34     1     0     0
SMALL
bcc


@<TRIPOS>ATOM
      1 C1          0.4200    1.0530    0.2940 ca        1 CHJ     -0.215000
      2 C2          1.8080    1.0580    0.5220 ca        1 CHJ      0.171100
      3 O13         2.7420    1.5350   -0.3880 os        1 CHJ     -0.225200
      4 C14         2.2510    1.9490   -1.6230 ca        1 CHJ      0.045100
      5 C15         2.2240    1.0480   -2.7100 ca        1 CHJ      0.139100
      6 O20         2.5340   -0.2620   -2.4530 oh        1 CHJ     -0.472100
      7 C16         1.8840    1.5100   -3.9900 ca        1 CHJ     -0.210000
      8 C17         1.5740    2.8590   -4.1670 ca        1 CHJ      0.058400
      9 CL1         1.1610    3.4180   -5.7160 cl        1 CHJ     -0.078400
     10 C18         1.5980    3.7550   -3.0920 ca        1 CHJ     -0.155000
     11 C19         1.9360    3.2970   -1.8210 ca        1 CHJ     -0.088000
     12 C3          2.3540    0.5860    1.7200 ca        1 CHJ     -0.178000
     13 C4          1.4700    0.1050    2.6980 ca        1 CHJ      0.181100
     14 C5          0.0720    0.0880    2.4960 ca        1 CHJ     -0.180800
     15 C6         -0.4300    0.5700    1.2760 ca        1 CHJ     -0.044000
     16 C7         -0.7720   -0.4270    3.5550 cc        1 CHJ      0.055600
     17 C12        -2.2410   -0.4560    3.3660 c3        1 CHJ     -0.073900
     18 C8         -0.1940   -0.8710    4.6970 cd        1 CHJ     -0.271200
     19 C9          1.2470   -0.8400    4.8770 c         1 CHJ      0.723800
     20 O10         1.9210   -1.2000    5.8400 o         1 CHJ     -0.566500
     21 O11         2.0630   -0.3440    3.8570 os        1 CHJ     -0.324200
     22 H1          0.0190    1.4250   -0.6600 ha        1 CHJ      0.151000
     23 H2          2.5210   -0.7450   -3.2940 ho        1 CHJ      0.426000
     24 H3          1.8680    0.8120   -4.8400 ha        1 CHJ      0.155000
     25 H4          1.3550    4.8170   -3.2470 ha        1 CHJ      0.157000
     26 H5          1.9700    3.9910   -0.9670 ha        1 CHJ      0.159000
     27 H6          3.4390    0.5870    1.8940 ha        1 CHJ      0.178000
     28 H7         -1.5170    0.5630    1.0980 ha        1 CHJ      0.140000
     29 H8         -2.6260    0.5800    3.1880 hc        1 CHJ      0.058033
     30 H9         -2.5020   -1.0880    2.4790 hc        1 CHJ      0.058033
     31 H10        -2.7560   -0.8760    4.2640 hc        1 CHJ      0.058033
     32 H11        -0.7700   -1.2740    5.5420 ha        1 CHJ      0.168000
@<TRIPOS>BOND
     1    1    2 ar  
     2    1   15 ar  
     3    1   22 1   
     4    2    3 1   
     5    2   12 ar  
     6    3    4 1   
     7    4    5 ar  
     8    4   11 ar  
     9    5    6 1   
    10    5    7 ar  
    11    6   23 1   
    12    7    8 ar  
    13    7   24 1   
    14    8    9 1   
    15    8   10 ar  
    16   10   11 ar  
    17   10   25 1   
    18   11   26 1   
    19   12   13 ar  
    20   12   27 1   
    21   13   14 ar  
    22   13   21 1   
    23   14   15 ar  
    24   14   16 1   
    25   15   28 1   
    26   16   17 1   
    27   16   18 2   
    28   17   29 1   
    29   17   30 1   
    30   17   31 1   
    31   18   19 1   
    32   18   32 1   
    33   19   20 2   
    34   19   21 1   
@<TRIPOS>SUBSTRUCTURE
     1 CHJ         1 TEMP              0 ****  ****    0 ROOT
