@<TRIPOS>MOLECULE
molecule
   55    55     1     0     0
SMALL
bcc


@<TRIPOS>ATOM
      1 OX1          0.0000     0.0000     0.0000 o          1 CHK      -0.590100
      2 CX1          1.2110     0.0000     0.0000 c          1 CHK       0.675100
      3 CX2          1.9650     0.0000     1.3050 c3         1 CHK      -0.157400
      4 CX3          0.9810     0.1860     2.4620 c3         1 CHK      -0.051700
      5 CX4          0.2450     1.5160     2.2980 c3         1 CHK      -0.079900
      6 CX5         -0.7390     1.7010     3.4540 c3         1 CHK      -0.076900
      7 CX6          0.0270     1.7020     4.7790 c3         1 CHK      -0.081400
      8 CX7          0.7620     0.3710     4.9440 c3         1 CHK      -0.076900
      9 CX8          1.7460     0.1870     3.7870 c3         1 CHK      -0.079900
     10 NX1          1.8840    -0.0010    -1.1680 n          1 CHK      -0.493800
     11 CX9          3.3470     0.0880    -1.1690 c3         1 CHK       0.102000
     12 CXA          3.7680     1.5460    -1.3720 c3         1 CHK       0.116400
     13 OX2          3.3360     2.3250    -0.2560 oh         1 CHK      -0.607800
     14 CXB          1.1560    -0.0940    -2.4330 c3         1 CHK       0.100000
     15 CXC          0.9890    -1.5630    -2.8220 c3         1 CHK       0.118100
     16 OX3          0.2600    -2.2450    -1.8020 oh         1 CHK      -0.562800
     17 CXD          0.2280    -1.6590    -4.1450 c3         1 CHK       0.140100
     18 OX4          0.9590    -0.9760    -5.1650 oh         1 CHK      -0.586800
     19 CXE          0.0630    -3.1290    -4.5340 c3         1 CHK       0.141100
     20 OX5         -0.6670    -3.8120    -3.5130 oh         1 CHK      -0.579800
     21 CXF         -0.6980    -3.2250    -5.8570 c3         1 CHK       0.128100
     22 OX6          0.0310    -2.5420    -6.8770 oh         1 CHK      -0.589800
     23 CXG         -0.8640    -4.6940    -6.2450 c3         1 CHK       0.105400
     24 OX7         -1.5760    -4.7840    -7.4810 oh         1 CHK      -0.614800
     25 HX21         2.4850    -0.9430     1.4210 hc         1 CHK       0.065200
     26 HX22         2.6830     0.8110     1.3070 hc         1 CHK       0.065200
     27 H1           0.2620    -0.6240     2.4630 hc         1 CHK       0.066700
     28 HX41         0.9630     2.3280     2.3030 hc         1 CHK       0.046200
     29 HX42        -0.2980     1.5140     1.3610 hc         1 CHK       0.046200
     30 HX51        -1.2580     2.6440     3.3380 hc         1 CHK       0.039700
     31 HX52        -1.4540     0.8870     3.4520 hc         1 CHK       0.039700
     32 HX61         0.7450     2.5120     4.7800 hc         1 CHK       0.036700
     33 HX62        -0.6710     1.8300     5.5980 hc         1 CHK       0.036700
     34 HX71         1.3050     0.3740     5.8810 hc         1 CHK       0.039700
     35 HX72         0.0440    -0.4400     4.9380 hc         1 CHK       0.039700
     36 HX81         2.2650    -0.7570     3.9030 hc         1 CHK       0.046200
     37 HX82         2.4610     1.0000     3.7900 hc         1 CHK       0.046200
     38 HX91         3.7450    -0.5180    -1.9740 h1         1 CHK       0.058700
     39 HX92         3.7320    -0.2710    -0.2220 h1         1 CHK       0.058700
     40 HXA1         3.3150     1.9300    -2.2780 h1         1 CHK       0.028200
     41 HXA2         4.8460     1.6020    -1.4560 h1         1 CHK       0.028200
     42 HX2          3.7870     3.1540    -0.2580 ho         1 CHK       0.404000
     43 HXB1         0.1800     0.3630    -2.3220 h1         1 CHK       0.068700
     44 HXB2         1.7100     0.4240    -3.2070 h1         1 CHK       0.068700
     45 HXC          1.9660    -2.0190    -2.9340 h1         1 CHK       0.033700
     46 HX3          0.7670    -2.9760    -1.4880 ho         1 CHK       0.395000
     47 HXD         -0.7490    -1.2030    -4.0330 h1         1 CHK       0.061700
     48 HX4          0.4450    -0.2550    -5.4910 ho         1 CHK       0.408000
     49 HXE          1.0390    -3.5850    -4.6450 h1         1 CHK       0.048700
     50 HX5         -0.3850    -4.7110    -3.4730 ho         1 CHK       0.398000
     51 HXF         -1.6740    -2.7690    -5.7450 h1         1 CHK       0.052700
     52 HX6         -0.5340    -2.3850    -7.6160 ho         1 CHK       0.413000
     53 HXG1         0.1120    -5.1510    -6.3570 h1         1 CHK       0.028700
     54 HXG2        -1.4180    -5.2120    -5.4710 h1         1 CHK       0.028700
     55 HX7         -1.7320    -5.6910    -7.6890 ho         1 CHK       0.408000
@<TRIPOS>BOND
     1     1     2 2
     2     2     3 1
     3     2    10 1
     4     3     4 1
     5     3    25 1
     6     3    26 1
     7     4     5 1
     8     4     9 1
     9     4    27 1
    10     5     6 1
    11     5    28 1
    12     5    29 1
    13     6     7 1
    14     6    30 1
    15     6    31 1
    16     7     8 1
    17     7    32 1
    18     7    33 1
    19     8     9 1
    20     8    34 1
    21     8    35 1
    22     9    36 1
    23     9    37 1
    24    10    11 1
    25    10    14 1
    26    11    12 1
    27    11    38 1
    28    11    39 1
    29    12    13 1
    30    12    40 1
    31    12    41 1
    32    13    42 1
    33    14    15 1
    34    14    43 1
    35    14    44 1
    36    15    16 1
    37    15    17 1
    38    15    45 1
    39    16    46 1
    40    17    18 1
    41    17    19 1
    42    17    47 1
    43    18    48 1
    44    19    20 1
    45    19    21 1
    46    19    49 1
    47    20    50 1
    48    21    22 1
    49    21    23 1
    50    21    51 1
    51    22    52 1
    52    23    24 1
    53    23    53 1
    54    23    54 1
    55    24    55 1
@<TRIPOS>SUBSTRUCTURE
     1 CHK         1 TEMP              0 ****  ****    0 ROOT
