@<TRIPOS>MOLECULE
molecule
   10     9     1     0     0
SMALL
bcc


@<TRIPOS>ATOM
      1 C1           0.0000     0.0000     0.0000 c3         1 CHM      -0.059000
      2 C2           1.5070     0.0000     0.0000 c          1 CHM       0.530100
      3 C3           2.2610     0.0000     1.3040 c3         1 CHM      -0.059000
      4 O            2.1100    -0.0000    -1.0450 o          1 CHM      -0.456100
      5 Cl1         -0.6020     0.0000    -1.6980 cl         1 CHM      -0.147400
      6 Cl3          4.0320    -0.0000     0.9760 cl         1 CHM      -0.147400
      7 H11         -0.3610    -0.8840     0.5110 h1         1 CHM       0.084700
      8 H12         -0.3610     0.8840     0.5110 h1         1 CHM       0.084700
      9 H31          1.9990     0.8840     1.8730 h1         1 CHM       0.084700
     10 H32          1.9990    -0.8840     1.8730 h1         1 CHM       0.084700
@<TRIPOS>BOND
     1     1     2 1
     2     1     5 1
     3     1     7 1
     4     1     8 1
     5     2     3 1
     6     2     4 2
     7     3     6 1
     8     3     9 1
     9     3    10 1
@<TRIPOS>SUBSTRUCTURE
     1 CHM         1 TEMP              0 ****  ****    0 ROOT
