@<TRIPOS>MOLECULE
CHM
   10     9     1     0     0
SMALL
bcc


@<TRIPOS>ATOM
      1 C1          0.2590   -0.5020   -0.2010 c3        1 CHM     -0.079000
      2 C2          1.6390    0.0940   -0.1430 c         1 CHM      0.557100
      3 C3          2.1550    0.4770    1.2170 c3        1 CHM     -0.079000
      4 O           2.3130    0.2620   -1.1600 o         1 CHM     -0.485100
      5 CL1        -0.9540    0.6840    0.2210 cl        1 CHM     -0.152400
      6 CL3         2.4370   -0.9400    2.2010 cl        1 CHM     -0.152400
      7 H11         0.0280   -0.8590   -1.2350 h1        1 CHM      0.097700
      8 H12         0.1690   -1.3470    0.5250 h1        1 CHM      0.097700
      9 H31         1.4090    1.1150    1.7510 h1        1 CHM      0.097700
     10 H32         3.1300    1.0180    1.1290 h1        1 CHM      0.097700
@<TRIPOS>BOND
     1    1    2 1   
     2    1    5 1   
     3    1    7 1   
     4    1    8 1   
     5    2    3 1   
     6    2    4 2   
     7    3    6 1   
     8    3    9 1   
     9    3   10 1   
@<TRIPOS>SUBSTRUCTURE
     1 CHM         1 TEMP              0 ****  ****    0 ROOT
