@<TRIPOS>MOLECULE
molecule
   27    27     1     0     0
SMALL
bcc


@<TRIPOS>ATOM
      1 N1           0.0000     0.0000     0.0000 nz         1 CHN      -0.810600
      2 C1           1.4680     0.0000     0.0000 c3         1 CHN       0.101800
      3 C2           1.9800     0.0000     1.4410 c3         1 CHN      -0.114700
      4 C7           3.5080    -0.0020     1.4400 c3         1 CHN      -0.097900
      5 C6           4.0210    -0.0010     2.8820 c3         1 CHN      -0.099900
      6 C5           3.5130     1.2480     3.6020 c3         1 CHN       0.103500
      7 C4           1.9820     1.2490     3.6040 c3         1 CHN      -0.099900
      8 C3           1.4720     1.2490     2.1630 c3         1 CHN      -0.097900
      9 N2           4.0030     2.4470     2.9100 nz         1 CHN      -0.813600
     10 HN11        -0.3340    -0.5670     0.7540 hn         1 CHN       0.466800
     11 HN12        -0.3340    -0.3700    -0.8680 hn         1 CHN       0.466800
     12 H11          1.8290    -0.8840    -0.5110 hx         1 CHN       0.120700
     13 H12          1.8290     0.8840    -0.5110 hx         1 CHN       0.120700
     14 H21          1.6210    -0.8830     1.9560 hc         1 CHN       0.098700
     15 H71          3.8690     0.8840     0.9300 hc         1 CHN       0.061450
     16 H72          3.8670    -0.8880     0.9310 hc         1 CHN       0.061450
     17 H61          5.1040     0.0010     2.8790 hc         1 CHN       0.104700
     18 H62          3.6580    -0.8850     3.3930 hc         1 CHN       0.104700
     19 H51          3.8720     1.2440     4.6240 hx         1 CHN       0.140700
     20 H41          1.6220     0.3630     4.1130 hc         1 CHN       0.104700
     21 H42          1.6240     2.1360     4.1130 hc         1 CHN       0.104700
     22 H31          1.8360     2.1320     1.6530 hc         1 CHN       0.061450
     23 H32          0.3890     1.2470     2.1650 hc         1 CHN       0.061450
     24 HN21         4.9970     2.5040     3.0050 hn         1 CHN       0.461133
     25 HN22         3.7630     2.3930     1.9400 hn         1 CHN       0.461133
     26 H13         -0.3340     0.9390     0.0910 hn         1 CHN       0.466800
     27 H23          3.5910     3.2610     3.3210 hn         1 CHN       0.461133
@<TRIPOS>BOND
     1     1     2 1
     2     1    10 1
     3     1    11 1
     4     2     3 1
     5     2    12 1
     6     2    13 1
     7     3     4 1
     8     3     8 1
     9     3    14 1
    10     4     5 1
    11     4    15 1
    12     4    16 1
    13     5     6 1
    14     5    17 1
    15     5    18 1
    16     6     7 1
    17     6     9 1
    18     6    19 1
    19     7     8 1
    20     7    20 1
    21     7    21 1
    22     8    22 1
    23     8    23 1
    24     9    24 1
    25     9    25 1
    26    26     1 1
    27    27     9 1
@<TRIPOS>SUBSTRUCTURE
     1 CHN         1 TEMP              0 ****  ****    0 ROOT
