@<TRIPOS>MOLECULE
molecule
   74    77     1     0     0
SMALL
bcc


@<TRIPOS>ATOM
      1 C1           0.0000     0.0000     0.0000 c3         1 CHO      -0.070400
      2 C2           1.5290     0.0000     0.0000 c3         1 CHO      -0.093400
      3 C3           2.0400     0.0000     1.4430 c3         1 CHO       0.146100
      4 O3           3.4690     0.0050     1.4420 oh         1 CHO      -0.605800
      5 C4           1.5270     1.2470     2.1650 c3         1 CHO      -0.099400
      6 C5          -0.0030     1.2460     2.1630 c3         1 CHO      -0.046700
      7 C6          -0.5130     2.4950     2.8850 c3         1 CHO      -0.096400
      8 C7           0.0020     3.7460     2.1680 c3         1 CHO       0.149100
      9 O7           1.4300     3.7420     2.1720 oh         1 CHO      -0.598800
     10 C8          -0.5050     3.7510     0.7250 c3         1 CHO      -0.061700
     11 C9           0.0140     2.4960     0.0040 c3         1 CHO      -0.055700
     12 C10         -0.5100     1.2500     0.7200 c3         1 CHO      -0.055000
     13 C11         -0.4110     2.4760    -1.4600 c3         1 CHO      -0.082400
     14 C12          0.0220     3.7600    -2.1870 c3         1 CHO      -0.065400
     15 C13         -0.5890     4.9290    -1.4410 c3         1 CHO      -0.063000
     16 C14          0.0390     4.9540    -0.0210 c3         1 CHO      -0.067700
     17 C15         -0.4180     6.3230     0.4960 c3         1 CHO      -0.081400
     18 C16         -0.2250     7.2420    -0.7410 c3         1 CHO      -0.079400
     19 C17         -0.2810     6.3210    -1.9840 c3         1 CHO      -0.051700
     20 C18         -2.1030     4.7390    -1.3340 c3         1 CHO      -0.093100
     21 C19         -2.0400     1.2560     0.7140 c3         1 CHO      -0.088100
     22 C20         -1.3910     6.7770    -2.9330 c3         1 CHO      -0.076700
     23 C21         -1.4020     5.8810    -4.1730 c3         1 CHO      -0.095100
     24 C22         -1.1390     8.2270    -3.3530 c3         1 CHO      -0.063400
     25 C23         -2.3120     8.7230    -4.2000 c3         1 CHO      -0.163400
     26 C24         -2.0650    10.1510    -4.6140 c          1 CHO       0.639100
     27 O24         -1.0500    10.7160    -4.2640 o          1 CHO      -0.653100
     28 N25         -2.9710    10.8000    -5.3700 ns         1 CHO      -0.549900
     29 C26         -2.7300    12.1880    -5.7730 c3         1 CHO      -0.003000
     30 C27         -3.8850    12.6770    -6.6070 c          1 CHO       0.882600
     31 OT1         -4.8150    11.9420    -6.8430 o          1 CHO      -0.847300
     32 OT2         -3.8810    13.9300    -7.0900 o          1 CHO      -0.847300
     33 H11         -0.3600    -0.8830     0.5140 hc         1 CHO       0.041700
     34 H12         -0.3600     0.0010    -1.0220 hc         1 CHO       0.041700
     35 H21          1.8890     0.8860    -0.5090 hc         1 CHO       0.051700
     36 H22          1.8890    -0.8860    -0.5090 hc         1 CHO       0.051700
     37 H3           1.6770    -0.8850     1.9520 h1         1 CHO       0.019700
     38 HO3          3.7860    -0.7720     1.8720 ho         1 CHO       0.393000
     39 H41          1.8860     2.1320     1.6540 hc         1 CHO       0.074700
     40 H42          1.8850     1.2440     3.1870 hc         1 CHO       0.074700
     41 H5          -0.3650     0.3610     2.6720 hc         1 CHO       0.039700
     42 H61         -0.1530     2.4930     3.9070 hc         1 CHO       0.043700
     43 H62         -1.5970     2.4980     2.8790 hc         1 CHO       0.043700
     44 H7          -0.3620     4.6280     2.6800 h1         1 CHO       0.032700
     45 HO7          1.7440     4.3380     2.8320 ho         1 CHO       0.392000
     46 H8          -1.5880     3.7640     0.7130 hc         1 CHO       0.069700
     47 H9           1.0960     2.4930     0.0500 hc         1 CHO       0.075700
     48 H111         0.0460     1.6230    -1.9480 hc         1 CHO       0.041200
     49 H112        -1.4890     2.3860    -1.5130 hc         1 CHO       0.041200
     50 H121        -0.3410     3.7450    -3.2080 hc         1 CHO       0.046200
     51 H122         1.1030     3.8420    -2.1760 hc         1 CHO       0.046200
     52 H14          1.1190     4.9110    -0.0830 hc         1 CHO       0.070700
     53 H151        -1.4600     6.2920     0.7900 hc         1 CHO       0.037700
     54 H152         0.2100     6.6490     1.3160 hc         1 CHO       0.037700
     55 H161         0.7380     7.7350    -0.6890 hc         1 CHO       0.050700
     56 H162        -1.0220     7.9750    -0.7850 hc         1 CHO       0.050700
     57 H17          0.6760     6.3190    -2.4910 hc         1 CHO       0.056700
     58 H181        -2.5400     5.5930    -0.8320 hc         1 CHO       0.038033
     59 H182        -2.5270     4.6490    -2.3270 hc         1 CHO       0.038033
     60 H183        -2.3150     3.8400    -0.7680 hc         1 CHO       0.038033
     61 H191        -2.3980     1.1550    -0.3040 hc         1 CHO       0.035033
     62 H192        -2.4000     2.1890     1.1320 hc         1 CHO       0.035033
     63 H193        -2.4070     0.4290     1.3090 hc         1 CHO       0.035033
     64 H20         -2.3470     6.7080    -2.4300 hc         1 CHO       0.052700
     65 H211        -0.4200     5.4430    -4.3110 hc         1 CHO       0.034033
     66 H212        -1.6580     6.4730    -5.0440 hc         1 CHO       0.034033
     67 H213        -2.1340     5.0940    -4.0440 hc         1 CHO       0.034033
     68 H221        -1.0430     8.8470    -2.4690 hc         1 CHO       0.056700
     69 H222        -0.2260     8.2820    -3.9330 hc         1 CHO       0.056700
     70 H231        -2.4070     8.1030    -5.0830 hc         1 CHO       0.052200
     71 H232        -3.2250     8.6680    -3.6200 hc         1 CHO       0.052200
     72 HN          -3.8090    10.3340    -5.6580 hn         1 CHO       0.331500
     73 H261        -1.8160    12.2420    -6.3530 h1         1 CHO       0.045700
     74 H262        -2.6340    12.8090    -4.8900 h1         1 CHO       0.045700
@<TRIPOS>BOND
     1     1     2 1
     2     1    12 1
     3     1    33 1
     4     1    34 1
     5     2     3 1
     6     2    35 1
     7     2    36 1
     8     3     4 1
     9     3     5 1
    10     3    37 1
    11     4    38 1
    12     5     6 1
    13     5    39 1
    14     5    40 1
    15     6     7 1
    16     6    12 1
    17     6    41 1
    18     7     8 1
    19     7    42 1
    20     7    43 1
    21     8     9 1
    22     8    10 1
    23     8    44 1
    24     9    45 1
    25    10    11 1
    26    10    16 1
    27    10    46 1
    28    11    12 1
    29    11    13 1
    30    11    47 1
    31    12    21 1
    32    13    14 1
    33    13    48 1
    34    13    49 1
    35    14    15 1
    36    14    50 1
    37    14    51 1
    38    15    16 1
    39    15    19 1
    40    15    20 1
    41    16    17 1
    42    16    52 1
    43    17    18 1
    44    17    53 1
    45    17    54 1
    46    18    19 1
    47    18    55 1
    48    18    56 1
    49    19    22 1
    50    19    57 1
    51    20    58 1
    52    20    59 1
    53    20    60 1
    54    21    61 1
    55    21    62 1
    56    21    63 1
    57    22    23 1
    58    22    24 1
    59    22    64 1
    60    23    65 1
    61    23    66 1
    62    23    67 1
    63    24    25 1
    64    24    68 1
    65    24    69 1
    66    25    26 1
    67    25    70 1
    68    25    71 1
    69    26    27 2
    70    26    28 1
    71    28    29 1
    72    28    72 1
    73    29    30 1
    74    29    73 1
    75    29    74 1
    76    30    31 1
    77    30    32 1
@<TRIPOS>SUBSTRUCTURE
     1 CHO         1 TEMP              0 ****  ****    0 ROOT
