@<TRIPOS>MOLECULE
molecule
   31    33     1     0     0
SMALL
bcc


@<TRIPOS>ATOM
      1 N            0.0000     0.0000     0.0000 ns         1 CHQ      -0.578900
      2 CA           1.4620     0.0000     0.0000 c3         1 CHQ       0.041700
      3 C            1.9740     0.0000     1.4230 c          1 CHQ       0.710500
      4 O            3.0140     0.5500     1.7150 o          1 CHQ      -0.626500
      5 CB           1.9700     1.2500    -0.7220 c3         1 CHQ       0.001900
      6 ND1          0.2980     1.7970    -2.5930 na         1 CHQ      -0.302900
      7 CE1          0.2390     1.5740    -3.9240 cc         1 CHQ       0.404400
      8 NE2          1.3100     0.9240    -4.2870 nd         1 CHQ      -0.693000
      9 CD2          2.0850     0.7150    -3.2120 cd         1 CHQ       0.331200
     10 CG           1.4670     1.2490    -2.1420 cc         1 CHQ      -0.257900
     11 NP           1.2370    -0.6330     2.3500 n          1 CHQ      -0.492800
     12 CAP         -0.0050    -1.3710     2.0570 c3         1 CHQ       0.028700
     13 CP          -0.7130    -0.6510     0.9370 c          1 CHQ       0.693500
     14 OP          -1.9240    -0.6550     0.8850 o          1 CHQ      -0.633500
     15 CBP         -0.8550    -1.3320     3.3360 c3         1 CHQ      -0.090400
     16 CGP          0.0100    -0.5760     4.3710 c3         1 CHQ      -0.102400
     17 CDP          1.4460    -0.7230     3.8010 c3         1 CHQ       0.096000
     18 H           -0.4850     0.4990    -0.7190 hn         1 CHQ       0.329500
     19 HA           1.8200    -0.8860    -0.5090 h1         1 CHQ       0.081700
     20 HBC1         3.0540     1.2510    -0.7230 hc         1 CHQ       0.080200
     21 HBC2         1.6090     2.1340    -0.2110 hc         1 CHQ       0.080200
     22 HE1         -0.5650     1.8820    -4.5810 h5         1 CHQ       0.068100
     23 HD2          3.0380     0.2010    -3.2060 h4         1 CHQ       0.045100
     24 HAP          0.2160    -2.3940     1.7760 h1         1 CHQ       0.081700
     25 HBP1        -1.7780    -0.7960     3.1560 hc         1 CHQ       0.071200
     26 HBP2        -1.0580    -2.3390     3.6810 hc         1 CHQ       0.071200
     27 HGP1        -0.2540     0.4720     4.3020 hc         1 CHQ       0.070200
     28 HGP2        -0.0260    -1.1450     5.2920 hc         1 CHQ       0.070200
     29 HDP1         1.8650    -1.6860     4.0670 h1         1 CHQ       0.062700
     30 HDP2         2.0770     0.0870     4.1460 h1         1 CHQ       0.062700
     31 HD1         -0.3860     2.2740    -2.0400 hn         1 CHQ       0.298700
@<TRIPOS>BOND
     1     1     2 1
     2     1    13 1
     3     1    18 1
     4     2     3 1
     5     2     5 1
     6     2    19 1
     7     3     4 2
     8     3    11 1
     9     5    10 1
    10     5    20 1
    11     5    21 1
    12     6     7 1
    13     6    10 1
    14     6    31 1
    15     7     8 2
    16     7    22 1
    17     8     9 1
    18     9    10 2
    19     9    23 1
    20    11    12 1
    21    11    17 1
    22    12    13 1
    23    12    15 1
    24    12    24 1
    25    13    14 2
    26    15    16 1
    27    15    25 1
    28    15    26 1
    29    16    17 1
    30    16    27 1
    31    16    28 1
    32    17    29 1
    33    17    30 1
@<TRIPOS>SUBSTRUCTURE
     1 CHQ         1 TEMP              0 ****  ****    0 ROOT
