@<TRIPOS>MOLECULE
molecule
   21    20     1     0     0
SMALL
bcc


@<TRIPOS>ATOM
      1 C4           0.0000     0.0000     0.0000 c3         1 CHT       0.114400
      2 C5           1.5300     0.0000     0.0000 c3         1 CHT       0.102800
      3 C6           1.4380    -2.3840    -0.2490 c3         1 CHT       0.094767
      4 C7           1.6250    -1.4130     1.9360 c3         1 CHT       0.094767
      5 C8           3.4840    -1.3280     0.4220 c3         1 CHT       0.094767
      6 O6          -0.4770     0.0000     1.3470 oh         1 CHT      -0.623800
      7 N1           2.0190    -1.2820     0.5270 n4         1 CHT      -0.573800
      8 HC41        -0.3610    -0.8840    -0.5110 h1         1 CHT       0.067200
      9 HC42        -0.3610     0.8850    -0.5110 h1         1 CHT       0.067200
     10 HC51         1.8910     0.1360    -1.0120 hx         1 CHT       0.108200
     11 HC52         1.8910     0.8090     0.6240 hx         1 CHT       0.108200
     12 H61          1.4370    -2.1240    -1.3010 hx         1 CHT       0.100256
     13 H62          2.0260    -3.2810    -0.1000 hx         1 CHT       0.100256
     14 H63          0.4200    -2.5600     0.0790 hx         1 CHT       0.100256
     15 H71          1.7080    -0.4500     2.4250 hx         1 CHT       0.100256
     16 H72          0.6000    -1.7600     1.9930 hx         1 CHT       0.100256
     17 H73          2.2760    -2.1260     2.4280 hx         1 CHT       0.100256
     18 H81          3.9120    -0.5100     0.9890 hx         1 CHT       0.100256
     19 H82          3.8450    -2.2690     0.8180 hx         1 CHT       0.100256
     20 H83          3.7740    -1.2380    -0.6170 hx         1 CHT       0.100256
     21 HO6         -1.3010     0.4570     1.3890 ho         1 CHT       0.444000
@<TRIPOS>BOND
     1     1     2 1
     2     1     6 1
     3     1     8 1
     4     1     9 1
     5     2     7 1
     6     2    10 1
     7     2    11 1
     8     3     7 1
     9     3    12 1
    10     3    13 1
    11     3    14 1
    12     4     7 1
    13     4    15 1
    14     4    16 1
    15     4    17 1
    16     5     7 1
    17     5    18 1
    18     5    19 1
    19     5    20 1
    20     6    21 1
@<TRIPOS>SUBSTRUCTURE
     1 CHT         1 TEMP              0 ****  ****    0 ROOT
