@<TRIPOS>MOLECULE
molecule
   51    54     1     0     0
SMALL
bcc


@<TRIPOS>ATOM
      1 C4           0.0000     0.0000     0.0000 ca         1 CHU      -0.147000
      2 C5           1.3870     0.0000     0.0000 ca         1 CHU       0.177100
      3 C6           2.0780     0.0000     1.2250 ca         1 CHU      -0.153800
      4 C7           3.5430     0.0000     1.2140 cc         1 CHU       0.030600
      5 C8           4.1750     0.0020     0.0120 cd         1 CHU      -0.231400
      6 C13          5.6810     0.0030    -0.0490 c3         1 CHU       0.026100
      7 C20         -2.5570    -3.3090     0.0920 ca         1 CHU       0.495700
      8 C22          6.2650    -2.0070    -1.4430 ca         1 CHU      -0.011400
      9 C26          6.5590    -2.1500     0.9170 ca         1 CHU      -0.270300
     10 C1          -0.6880     0.0040     1.2020 ca         1 CHU       0.165100
     11 C2           0.0030     0.0070     2.4130 ca         1 CHU      -0.149000
     12 C3           1.3660    -0.0030     2.4310 ca         1 CHU      -0.066000
     13 C9           3.4190     0.0030    -1.1780 c          1 CHU       0.741800
     14 O10          2.0770     0.0030    -1.1610 os         1 CHU      -0.301200
     15 O11          3.9990     0.0050    -2.2500 o          1 CHU      -0.564500
     16 C12          4.3270     0.0000     2.5010 c3         1 CHU      -0.065900
     17 C14          6.1780    -1.4120    -0.1970 ca         1 CHU      -0.056300
     18 O15         -2.0460     0.0020     1.2020 os         1 CHU      -0.328400
     19 C16         -2.6810    -1.1190     0.7820 ca         1 CHU       0.902300
     20 N17         -3.9990    -1.1060     0.6620 nb         1 CHU      -0.767000
     21 C18         -4.6500    -2.1820     0.2500 ca         1 CHU       0.495700
     22 C19         -3.9360    -3.3330    -0.0450 ca         1 CHU      -0.419600
     23 N21         -1.9680    -2.1980     0.5040 nb         1 CHU      -0.767000
     24 C23          6.7300    -3.3170    -1.5380 ca         1 CHU       0.660200
     25 N24          7.0850    -3.9850    -0.4510 nb         1 CHU      -0.720000
     26 C25          7.0100    -3.4430     0.7500 ca         1 CHU       0.453200
     27 N27          6.8240    -3.9280    -2.7840 nu         1 CHU      -0.861800
     28 S28          7.3750    -5.4850    -2.9040 s6         1 CHU       1.545800
     29 N29          6.2750    -6.4560    -2.1370 n7         1 CHU      -0.916100
     30 C30          4.9150    -6.5820    -2.6680 c3         1 CHU       0.232100
     31 O31          7.3200    -5.8250    -4.2820 o          1 CHU      -0.630800
     32 O32          8.5700    -5.5480    -2.1360 o          1 CHU      -0.630800
     33 H1          -0.5430    -0.0030    -0.9370 ha         1 CHU       0.166000
     34 H2           6.0070     0.5900    -0.8990 hc         1 CHU       0.076200
     35 H3           6.0790     0.4330     0.8620 hc         1 CHU       0.076200
     36 H4          -1.9690    -4.1900    -0.1320 h4         1 CHU       0.037100
     37 H5           6.5020    -1.7140     1.9070 ha         1 CHU       0.141000
     38 H6          -0.5480     0.0100     3.3460 ha         1 CHU       0.152000
     39 H7           1.8980     0.0000     3.3750 ha         1 CHU       0.145000
     40 H8           4.4360    -1.0170     2.8570 hc         1 CHU       0.057700
     41 H9           3.8020     0.5890     3.2440 hc         1 CHU       0.057700
     42 H10          5.3060     0.4290     2.3270 hc         1 CHU       0.057700
     43 H11         -5.7290    -2.1660     0.1530 h4         1 CHU       0.037100
     44 H12         -4.4440    -4.2280    -0.3820 ha         1 CHU       0.152000
     45 H13          7.3090    -4.0210     1.6160 h4         1 CHU       0.033100
     46 H14          6.5890    -3.4160    -3.6110 hn         1 CHU       0.478800
     47 H15          6.5530    -6.9960    -1.3420 hn         1 CHU       0.460800
     48 H16          4.6940    -5.7310    -3.3010 h1         1 CHU       0.038033
     49 H17          4.8380    -7.4940    -3.2490 h1         1 CHU       0.038033
     50 H18          4.2080    -6.6160    -1.8480 h1         1 CHU       0.038033
     51 F33          5.9000    -1.3280    -2.5530 f          1 CHU      -0.108900
@<TRIPOS>BOND
     1    11    12 ar
     2    11    10 ar
     3    18    10 1
     4    18    19 1
     5    12     3 ar
     6    23    19 ar
     7    23     7 ar
     8    10     1 ar
     9    19    20 ar
    10    16     4 1
    11     7    22 ar
    12     3     4 1
    13     3     2 ar
    14     1     2 ar
    15     4     5 2
    16     2    14 1
    17    20    21 ar
    18    22    21 ar
    19     5     6 1
    20     5    13 1
    21    14    13 1
    22     6    17 1
    23    13    15 2
    24    51     8 1
    25    17     8 ar
    26    17     9 ar
    27     8    24 ar
    28     9    26 ar
    29    24    27 1
    30    24    25 ar
    31    27    28 1
    32    26    25 ar
    33    30    29 1
    34    29    28 1
    35    31    28 2
    36    28    32 2
    37     1    33 1
    38     6    34 1
    39     6    35 1
    40     7    36 1
    41     9    37 1
    42    11    38 1
    43    12    39 1
    44    16    40 1
    45    16    41 1
    46    16    42 1
    47    21    43 1
    48    22    44 1
    49    26    45 1
    50    27    46 1
    51    29    47 1
    52    30    48 1
    53    30    49 1
    54    30    50 1
@<TRIPOS>SUBSTRUCTURE
     1 CHU         1 TEMP              0 ****  ****    0 ROOT
