@<TRIPOS>MOLECULE
CHV
   30    32     1     0     0
SMALL
bcc


@<TRIPOS>ATOM
      1 C1         -0.6210   -0.5580    0.2210 c         1 CHV      0.721800
      2 O11        -1.5560   -0.9190   -0.4890 o         1 CHV     -0.560500
      3 C2          0.7390   -0.1560   -0.1350 cc        1 CHV     -0.047100
      4 O13         1.0100    0.0040   -1.4910 os        1 CHV     -0.219200
      5 C14         1.4130   -1.1670   -2.1370 ca        1 CHV      0.047100
      6 C15         2.7850   -1.4690   -2.2550 ca        1 CHV      0.130100
      7 O20         3.6730   -0.6750   -1.5700 oh        1 CHV     -0.491100
      8 C16         3.1940   -2.5560   -3.0390 ca        1 CHV     -0.209000
      9 C17         2.2270   -3.3330   -3.6800 ca        1 CHV      0.055400
     10 CL1         2.7220   -4.6510   -4.6320 cl        1 CHV     -0.084400
     11 C18         0.8640   -3.0470   -3.5490 ca        1 CHV     -0.151000
     12 C19         0.4570   -1.9640   -2.7730 ca        1 CHV     -0.081000
     13 C3          1.6600    0.1670    0.8070 cd        1 CHV     -0.001200
     14 C4          1.2720    0.1450    2.1910 ca        1 CHV     -0.184800
     15 C5         -0.0500   -0.2190    2.5190 ca        1 CHV      0.190100
     16 O6         -0.9850   -0.5670    1.5690 os        1 CHV     -0.322200
     17 C7         -0.4940   -0.2520    3.8510 ca        1 CHV     -0.244000
     18 C8          0.4160    0.0860    4.8540 ca        1 CHV      0.177100
     19 O12         0.0810    0.0840    6.1840 oh        1 CHV     -0.487100
     20 C9          1.7480    0.4530    4.5510 ca        1 CHV     -0.182000
     21 C10         2.1600    0.4790    3.2320 ca        1 CHV     -0.038000
     22 H1          4.5690   -0.9390   -1.8300 ho        1 CHV      0.424000
     23 H2          4.2640   -2.7900   -3.1440 ha        1 CHV      0.151000
     24 H3          0.1120   -3.6710   -4.0550 ha        1 CHV      0.157000
     25 H4         -0.6120   -1.7220   -2.6450 ha        1 CHV      0.178000
     26 H5          2.6890    0.4470    0.5250 ha        1 CHV      0.173000
     27 H6         -1.5300   -0.5380    4.0770 ha        1 CHV      0.163000
     28 H7         -0.8490   -0.1780    6.2630 ho        1 CHV      0.429000
     29 H8          2.4310    0.7120    5.3720 ha        1 CHV      0.160000
     30 H9          3.1940    0.7650    2.9810 ha        1 CHV      0.146000
@<TRIPOS>BOND
     1    1    2 2   
     2    1    3 1   
     3    1   16 1   
     4    3    4 1   
     5    3   13 2   
     6    4    5 1   
     7    5    6 ar  
     8    5   12 ar  
     9    6    7 1   
    10    6    8 ar  
    11    7   22 1   
    12    8    9 ar  
    13    8   23 1   
    14    9   10 1   
    15    9   11 ar  
    16   11   12 ar  
    17   11   24 1   
    18   12   25 1   
    19   13   14 1   
    20   13   26 1   
    21   14   15 ar  
    22   14   21 ar  
    23   15   16 1   
    24   15   17 ar  
    25   17   18 ar  
    26   17   27 1   
    27   18   19 1   
    28   18   20 ar  
    29   19   28 1   
    30   20   21 ar  
    31   20   29 1   
    32   21   30 1   
@<TRIPOS>SUBSTRUCTURE
     1 CHV         1 TEMP              0 ****  ****    0 ROOT
