@<TRIPOS>MOLECULE
molecule
   30    32     1     0     0
SMALL
bcc


@<TRIPOS>ATOM
      1 C1           0.0000     0.0000     0.0000 c          1 CHV       0.716800
      2 O11         -0.5940    -0.0000    -1.0620 o          1 CHV      -0.546500
      3 C2           1.4170     0.0000     0.0000 cc         1 CHV      -0.044100
      4 O13          2.0990     0.0030    -1.1760 os         1 CHV      -0.199200
      5 C14          2.0160    -1.1020    -1.9640 ca         1 CHV       0.121100
      6 C15          2.6040    -1.1040    -3.2270 ca         1 CHV       0.100100
      7 O20          3.2620    -0.0010    -3.6730 oh         1 CHV      -0.497100
      8 C16          2.5160    -2.2310    -4.0270 ca         1 CHV      -0.130000
      9 C17          1.8470    -3.3530    -3.5700 ca         1 CHV       0.013400
     10 Cl1          1.7390    -4.7650    -4.5740 cl         1 CHV      -0.103400
     11 C18          1.2630    -3.3510    -2.3160 ca         1 CHV      -0.093000
     12 C19          1.3510    -2.2300    -1.5110 ca         1 CHV      -0.176000
     13 C3           2.0910     0.0000     1.1830 cd         1 CHV      -0.033200
     14 C4           1.3120    -0.0030     2.4240 ca         1 CHV      -0.163800
     15 C5          -0.0930    -0.0030     2.3480 ca         1 CHV       0.174100
     16 O6          -0.7030     0.0030     1.1430 os         1 CHV      -0.297200
     17 C7          -0.8370    -0.0050     3.5170 ca         1 CHV      -0.179000
     18 C8          -0.1930    -0.0070     4.7440 ca         1 CHV       0.160100
     19 O12         -0.9250    -0.0080     5.8880 oh         1 CHV      -0.515100
     20 C9           1.1980    -0.0060     4.8120 ca         1 CHV      -0.176000
     21 C10          1.9470    -0.0040     3.6710 ca         1 CHV      -0.056000
     22 H1           4.1890    -0.1690    -3.6780 ho         1 CHV       0.417000
     23 H2           2.9720    -2.2340    -5.0090 ha         1 CHV       0.158000
     24 H3           0.7410    -4.2310    -1.9620 ha         1 CHV       0.149000
     25 H4           0.8930    -2.2310    -0.5290 ha         1 CHV       0.144000
     26 H5           3.1740    -0.0000     1.2060 ha         1 CHV       0.161000
     27 H6          -1.9170    -0.0840     3.4730 ha         1 CHV       0.167000
     28 H7          -1.1650     0.8760     6.1090 ho         1 CHV       0.431000
     29 H8           1.6900    -0.0070     5.7780 ha         1 CHV       0.152000
     30 H9           3.0280    -0.0030     3.7300 ha         1 CHV       0.146000
@<TRIPOS>BOND
     1    20    21 ar
     2    20    18 ar
     3    21    14 ar
     4    19    18 1
     5    18    17 ar
     6     7     6 1
     7     8     6 ar
     8     8     9 ar
     9    14    13 1
    10    14    15 ar
    11     6     5 ar
    12    10     9 1
    13    13     3 2
    14    17    15 ar
    15     9    11 ar
    16    15    16 1
    17     5     4 1
    18     5    12 ar
    19     3     4 1
    20     3     1 1
    21    11    12 ar
    22    16     1 1
    23     1     2 2
    24     7    22 1
    25     8    23 1
    26    11    24 1
    27    12    25 1
    28    13    26 1
    29    17    27 1
    30    19    28 1
    31    20    29 1
    32    21    30 1
@<TRIPOS>SUBSTRUCTURE
     1 CHV         1 TEMP              0 ****  ****    0 ROOT
