@<TRIPOS>MOLECULE
molecule
   49    49     1     0     0
SMALL
bcc


@<TRIPOS>ATOM
      1 OAA          0.0000     0.0000     0.0000 oh         1 CHW      -0.492100
      2 CAB          1.3560     0.0000     0.0000 ca         1 CHW       0.202100
      3 CAC          2.0520     0.0000     1.1960 ca         1 CHW      -0.131300
      4 CAD          1.3030    -0.0010     2.5050 c3         1 CHW       0.013100
      5 CAE          1.0540    -1.4230     2.9390 c2         1 CHW      -0.173200
      6 CAF         -0.1580    -1.8090     3.2500 c2         1 CHW      -0.120400
      7 CAG         -0.4340    -3.2620     3.5400 c3         1 CHW      -0.033200
      8 CAH         -0.3630    -3.5040     5.0480 c3         1 CHW      -0.046200
      9 CAI         -0.6390    -4.9570     5.3380 c2         1 CHW      -0.176200
     10 CAJ          0.2720    -5.6930     5.9250 c2         1 CHW      -0.125400
     11 CAK         -0.0530    -7.1030     6.3430 c3         1 CHW       0.187300
     12 OAL          0.8980    -8.0020     5.7670 oh         1 CHW      -0.603800
     13 OAM          0.1250    -0.0100    -2.4970 o          1 CHW      -0.521100
     14 CAO          2.0640    -0.0050    -1.2160 ca         1 CHW      -0.253600
     15 CAP          3.4390     0.0000     1.1900 ca         1 CHW       0.173100
     16 OAQ          4.1190    -0.0000     2.3650 oh         1 CHW      -0.497100
     17 CAR         -1.2760    -0.8020     3.3190 c3         1 CHW      -0.055900
     18 CAS          1.6440    -5.1280     6.1850 c3         1 CHW      -0.047900
     19 CAT          0.0030    -7.2110     7.8680 c3         1 CHW      -0.112100
     20 CAU          3.4650    -0.0050    -1.2030 ca         1 CHW       0.000700
     21 CAV          4.1380     0.0010    -0.0140 ca         1 CHW      -0.058600
     22 ClAW         5.8740    -0.0000    -0.0060 cl         1 CHW      -0.095400
     23 CAX          4.2310    -0.0110    -2.5010 c3         1 CHW      -0.065800
     24 HOAA        -0.3140     0.8570    -0.2350 ho         1 CHW       0.435000
     25 HAD          0.3550     0.5090     2.3790 hc         1 CHW       0.060700
     26 HADA         1.8900     0.5100     3.2580 hc         1 CHW       0.060700
     27 HAE          1.8570    -2.1490     2.8910 ha         1 CHW       0.134000
     28 HAG         -1.4230    -3.5200     3.1790 hc         1 CHW       0.051200
     29 HAGA         0.3050    -3.8760     3.0400 hc         1 CHW       0.051200
     30 HAH          0.6250    -3.2450     5.4090 hc         1 CHW       0.052200
     31 HAK         -1.0470    -7.3620     5.9990 h1         1 CHW       0.030700
     32 HOAL         0.4480    -8.7480     5.4080 ho         1 CHW       0.400000
     33 HAN          1.8860    -0.0580    -3.4230 h4         1 CHW       0.005200
     34 HOAQ         4.6830     0.7550     2.4020 ho         1 CHW       0.431000
     35 HAR         -0.9640     0.0450     3.9180 hc         1 CHW       0.042033
     36 HARA        -2.1480    -1.2610     3.7690 hc         1 CHW       0.042033
     37 HARB        -1.5210    -0.4660     2.3180 hc         1 CHW       0.042033
     38 HAS          1.5830    -4.3740     6.9600 hc         1 CHW       0.045367
     39 HASA         2.3070    -5.9220     6.5050 hc         1 CHW       0.045367
     40 HASB         2.0280    -4.6810     5.2760 hc         1 CHW       0.045367
     41 HAT         -0.8590    -7.7620     8.2230 hc         1 CHW       0.044033
     42 HATA         0.9080    -7.7280     8.1600 hc         1 CHW       0.044033
     43 HATB        -0.0010    -6.2170     8.3000 hc         1 CHW       0.044033
     44 HAX          3.9820     0.8760    -3.0720 hc         1 CHW       0.057700
     45 HAXA         5.2940    -0.0190    -2.2940 hc         1 CHW       0.057700
     46 HAXB         3.9670    -0.8930    -3.0720 hc         1 CHW       0.057700
     47 HAI         -1.6250    -5.3660     5.1520 ha         1 CHW       0.120000
     48 HAH1        -1.1030    -2.8900     5.5480 hc         1 CHW       0.052200
     49 CAN          1.3390    -0.0100    -2.4890 c          1 CHW       0.582500
@<TRIPOS>BOND
     1     1     2 1
     2     2     3 ar
     3     2    14 ar
     4     3     4 1
     5     3    15 ar
     6     4     5 1
     7     5     6 2
     8     6     7 1
     9     6    17 1
    10     7     8 1
    11     8     9 1
    12     9    10 2
    13    10    11 1
    14    10    18 1
    15    11    12 1
    16    11    19 1
    17    13    49 2
    18    49    14 1
    19    14    20 ar
    20    15    16 1
    21    15    21 ar
    22    20    21 ar
    23    20    23 1
    24    21    22 1
    25     1    24 1
    26     4    25 1
    27     4    26 1
    28     5    27 1
    29     7    28 1
    30     7    29 1
    31     8    30 1
    32    11    31 1
    33    12    32 1
    34    49    33 1
    35    16    34 1
    36    17    35 1
    37    17    36 1
    38    17    37 1
    39    18    38 1
    40    18    39 1
    41    18    40 1
    42    19    41 1
    43    19    42 1
    44    19    43 1
    45    23    44 1
    46    23    45 1
    47    23    46 1
    48     9    47 1
    49     8    48 1
@<TRIPOS>SUBSTRUCTURE
     1 CHW         1 TEMP              0 ****  ****    0 ROOT
