@<TRIPOS>MOLECULE
CHW
   49    45     1     0     0
SMALL
bcc


@<TRIPOS>ATOM
      1 OAA         0.4010   -0.0540    0.2790 oh        1 CHW     -0.239000
      2 CAB         1.7110   -0.4210    0.2400 ca        1 CHW      0.212000
      3 CAC         2.3110   -0.6080    1.5110 ca        1 CHW     -0.112000
      4 CAD         1.5990   -0.4390    2.7680 c2        1 CHW     -0.060000
      5 CAE         0.3350   -0.6750    2.9840 c1        1 CHW     -0.143000
      6 CAF        -0.9250   -0.8970    3.2550 c2        1 CHW     -0.053000
      7 CAG        -1.4130   -2.2250    3.7110 c3        1 CHW     -0.176000
      8 CAH         0.4040   -5.2540    9.5890 c1        1 CHW      0.180000
      9 CAI         0.6100   -4.8770    8.3890 c1        1 CHW     -0.588000
     10 CAJ         0.8240   -4.4980    7.1410 c2        1 CHW      0.180000
     11 CAK         1.0670   -8.1610    5.1330 c1        1 CHW     -0.015000
     12 OAL         1.1260   -6.8910    4.7580 oh        1 CHW     -0.257000
     13 OAM         0.6630   -0.0650   -2.4610 o         1 CHW     -0.328000
     14 CAO         2.4460   -0.6030   -0.9550 ca        1 CHW     -0.302000
     15 CAP         3.6730   -0.9530    1.5490 ca        1 CHW      0.160000
     16 OAQ         4.2170   -1.1130    2.7960 oh        1 CHW     -0.238000
     17 CAR        -1.9620    0.1600    3.1290 c3        1 CHW     -0.176000
     18 CAS         0.9120   -3.0960    6.6970 c3        1 CHW     -0.249000
     19 CAT         0.8410   -8.3180    6.5850 c3        1 CHW     -0.314000
     20 CAU         3.8150   -0.9480   -0.8850 ca        1 CHW      0.068000
     21 CAV         4.4200   -1.1200    0.3600 ca        1 CHW     -0.205000
     22 CLAW        6.0710   -1.5390    0.4930 cl        1 CHW     -0.011000
     23 CAX         4.5980   -1.1190   -2.1360 c3        1 CHW     -0.205000
     24 HOAA        0.0510    0.1030   -0.6160 ho        1 CHW      0.265000
     25 HAD        -1.8260    0.8910    0.5030 ha        1 CHW      0.002000
     26 HADA        2.2390   -0.1040    3.6110 ha        1 CHW      0.151000
     27 HAE        -1.8600    1.0600   -0.1530 ha        1 CHW      0.002000
     28 HAG        -0.5920   -2.9850    3.7230 hc        1 CHW      0.084167
     29 HAGA       -2.2210   -2.5870    3.0280 hc        1 CHW      0.084167
     30 HAH        -1.8360   -2.1390    4.7430 hc        1 CHW      0.084167
     31 HAK         0.9510   -5.2590    6.3390 ha        1 CHW      0.138000
     32 HOAL        1.2750   -6.8750    3.7960 ho        1 CHW      0.252000
     33 HAN         2.4570   -0.7230   -3.1500 h4        1 CHW      0.104000
     34 HOAQ        5.1650   -1.3090    2.7010 ho        1 CHW      0.237000
     35 HAR        -1.5210    1.1280    2.7890 hc        1 CHW      0.084167
     36 HARA       -2.7350   -0.1570    2.3840 hc        1 CHW      0.084167
     37 HARB       -2.4650    0.3190    4.1150 hc        1 CHW      0.084167
     38 HAS         0.1240   -2.8980    5.9230 hc        1 CHW      0.112000
     39 HASA        0.7800   -2.3740    7.5390 hc        1 CHW      0.112000
     40 HASB        1.9110   -2.9180    6.2210 hc        1 CHW      0.112000
     41 HAT         0.7540   -7.3670    7.1690 hc        1 CHW      0.110667
     42 HATA       -0.0990   -8.9130    6.7190 hc        1 CHW      0.110667
     43 HATB        1.6900   -8.9210    6.9970 hc        1 CHW      0.110667
     44 HAX         4.2000   -1.9850   -2.7230 hc        1 CHW      0.101333
     45 HAXA        5.6800   -1.3120   -1.9340 hc        1 CHW      0.101333
     46 HAXB        4.5320   -0.1940   -2.7630 hc        1 CHW      0.101333
     47 HAI         1.1600   -4.4440    4.2940 ha        1 CHW      0.002000
     48 HAH1        1.1530   -4.6300    3.6420 ha        1 CHW      0.002000
     49 CAN         1.8230   -0.4540   -2.2730 c2        1 CHW      0.239000
@<TRIPOS>BOND
     1    1    2 1   
     2    1   24 1   
     3    2    3 1   
     4    2   14 1   
     5    3    4 1   
     6    3   15 1   
     7    4    5 1   
     8    4   26 1   
     9    5    6 1   
    10    6    7 1   
    11    6   17 1   
    12    7   28 1   
    13    7   29 1   
    14    7   30 1   
    15    8    9 1   
    16    9   10 1   
    17   10   18 1   
    18   10   31 1   
    19   11   12 1   
    20   11   19 1   
    21   12   32 1   
    22   13   49 1   
    23   14   20 1   
    24   14   49 1   
    25   15   16 1   
    26   15   21 1   
    27   16   34 1   
    28   17   35 1   
    29   17   36 1   
    30   17   37 1   
    31   18   38 1   
    32   18   39 1   
    33   18   40 1   
    34   19   41 1   
    35   19   42 1   
    36   19   43 1   
    37   20   21 1   
    38   20   23 1   
    39   21   22 1   
    40   23   44 1   
    41   23   45 1   
    42   23   46 1   
    43   25   27 1   
    44   33   49 1   
    45   47   48 1   
@<TRIPOS>SUBSTRUCTURE
     1 CHW         1 TEMP              0 ****  ****    0 ROOT
