@<TRIPOS>MOLECULE
molecule
   18    18     1     0     0
SMALL
bcc


@<TRIPOS>ATOM
      1 C1           0.0000     0.0000     0.0000 c3         1 CHX      -0.079400
      2 C2           1.5300     0.0000     0.0000 c3         1 CHX      -0.079400
      3 C3           2.0390     0.0000     1.4420 c3         1 CHX      -0.079400
      4 C4           1.5290    -1.2490     2.1620 c3         1 CHX      -0.079400
      5 C5          -0.0000    -1.2490     2.1620 c3         1 CHX      -0.079400
      6 C6          -0.5100    -1.2490     0.7200 c3         1 CHX      -0.079400
      7 H11         -0.3600     0.8830     0.5130 hc         1 CHX       0.039200
      8 H12         -0.3600    -0.0020    -1.0220 hc         1 CHX       0.039200
      9 H21          1.8890     0.8860    -0.5090 hc         1 CHX       0.039200
     10 H22          1.8890    -0.8860    -0.5090 hc         1 CHX       0.039200
     11 H31          3.1220    -0.0020     1.4410 hc         1 CHX       0.039200
     12 H32          1.6750     0.8840     1.9520 hc         1 CHX       0.039200
     13 H41          1.8890    -1.2470     3.1840 hc         1 CHX       0.039200
     14 H42          1.8890    -2.1330     1.6490 hc         1 CHX       0.039200
     15 H51         -0.3600    -2.1350     2.6710 hc         1 CHX       0.039200
     16 H52         -0.3600    -0.3630     2.6710 hc         1 CHX       0.039200
     17 H61         -1.5930    -1.2470     0.7220 hc         1 CHX       0.039200
     18 H62         -0.1460    -2.1330     0.2100 hc         1 CHX       0.039200
@<TRIPOS>BOND
     1     1     2 1
     2     1     6 1
     3     1     7 1
     4     1     8 1
     5     2     3 1
     6     2     9 1
     7     2    10 1
     8     3     4 1
     9     3    11 1
    10     3    12 1
    11     4     5 1
    12     4    13 1
    13     4    14 1
    14     5     6 1
    15     5    15 1
    16     5    16 1
    17     6    17 1
    18     6    18 1
@<TRIPOS>SUBSTRUCTURE
     1 CHX         1 TEMP              0 ****  ****    0 ROOT
