@<TRIPOS>MOLECULE
molecule
   84    86     1     0     0
SMALL
bcc


@<TRIPOS>ATOM
      1 N7           0.0000     0.0000     0.0000 ns         1 CHY      -0.559900
      2 C23          1.4650     0.0000     0.0000 c3         1 CHY       0.027700
      3 C24          1.9670     0.0000     1.4210 c          1 CHY       0.885600
      4 O5           1.1820     0.0000     2.3390 o          1 CHY      -0.839300
      5 C25          1.9740     1.2500    -0.7210 c3         1 CHY      -0.040100
      6 C26          1.5770     1.1890    -2.1730 ca         1 CHY      -0.057300
      7 C27          0.3710     1.7270    -2.5820 ca         1 CHY      -0.127000
      8 C31          2.4190     0.6000    -3.0970 ca         1 CHY      -0.127000
      9 C28          0.0050     1.6720    -3.9140 ca         1 CHY      -0.133500
     10 C30          2.0520     0.5420    -4.4290 ca         1 CHY      -0.133500
     11 C29          0.8460     1.0780    -4.8380 ca         1 CHY      -0.152000
     12 O4           3.2870     0.0000     1.6660 o          1 CHY      -0.839300
     13 N5          -2.3490    -4.6350     3.7840 nu         1 CHY      -0.927200
     14 C21         -3.5180    -4.7370     3.0470 c2         1 CHY       0.875100
     15 C20         -1.6650    -3.3320     3.7930 c3         1 CHY       0.231800
     16 N4          -4.5660    -5.3640     3.5040 n2         1 CHY      -0.936100
     17 C18         -2.9010    -2.8050     1.6860 c3         1 CHY       0.219500
     18 C19         -1.5180    -2.8450     2.3470 c3         1 CHY      -0.102400
     19 N3          -3.5150    -4.1370     1.7970 nu         1 CHY      -0.979200
     20 N6          -2.0220    -1.1630     0.1010 ns         1 CHY      -0.603900
     21 C17         -2.7540    -2.4270     0.2110 c3         1 CHY       0.066700
     22 C16         -4.1210    -2.2720    -0.4050 c          1 CHY       0.657100
     23 O2          -4.6050    -1.1680    -0.5360 o          1 CHY      -0.623100
     24 O3          -0.0660    -2.2120     0.1930 o          1 CHY      -0.667100
     25 C22         -0.6740    -1.1630     0.1010 c          1 CHY       0.789100
     26 N2          -4.8040    -3.3590    -0.8130 ns         1 CHY      -0.573900
     27 C11         -6.0760    -3.2030    -1.5230 c3         1 CHY       0.047700
     28 C10         -6.8870    -4.4650    -1.3850 c          1 CHY       0.666100
     29 O1          -6.3440    -5.5050    -1.0770 o          1 CHY      -0.615100
     30 C12         -5.8020    -2.9300    -3.0040 c3         1 CHY      -0.088400
     31 C13         -7.1300    -2.7700    -3.7470 c3         1 CHY      -0.096700
     32 C14         -7.8320    -1.4980    -3.2670 c3         1 CHY      -0.089100
     33 C15         -6.8650    -2.6700    -5.2500 c3         1 CHY      -0.089100
     34 N1          -8.2160    -4.4380    -1.6050 ns         1 CHY      -0.569900
     35 C8          -9.0250    -5.6310    -1.3460 c3         1 CHY       0.003700
     36 C9          -8.9900    -6.5350    -2.5520 c          1 CHY       0.553900
     37 O6          -8.3550    -6.2140    -3.5280 o          1 CHY      -0.503100
     38 C7         -10.4710    -5.2170    -1.0620 c3         1 CHY      -0.040100
     39 C4         -10.5220    -4.4150     0.2140 ca         1 CHY      -0.091300
     40 C3         -10.3780    -3.0410     0.1720 ca         1 CHY      -0.123000
     41 C5         -10.7120    -5.0550     1.4240 ca         1 CHY      -0.123000
     42 C2         -10.4260    -2.3050     1.3420 ca         1 CHY      -0.119500
     43 C6         -10.7600    -4.3190     2.5940 ca         1 CHY      -0.119500
     44 C1         -10.6170    -2.9450     2.5530 ca         1 CHY      -0.122000
     45 HN7         -0.5000     0.8660    -0.0320 hn         1 CHY       0.294500
     46 H23          1.8270    -0.8840    -0.5110 h1         1 CHY       0.079700
     47 H251         1.5410     2.1310    -0.2640 hc         1 CHY       0.064700
     48 H252         3.0540     1.2960    -0.6440 hc         1 CHY       0.064700
     49 H27         -0.2880     2.1920    -1.8590 ha         1 CHY       0.131000
     50 H31          3.3650     0.1790    -2.7770 ha         1 CHY       0.131000
     51 H28         -0.9400     2.0930    -4.2340 ha         1 CHY       0.115000
     52 H30          2.7110     0.0790    -5.1530 ha         1 CHY       0.115000
     53 H29          0.5590     1.0330    -5.8810 ha         1 CHY       0.112000
     54 H201        -2.3420    -2.6390     4.2770 h1         1 CHY       0.058200
     55 H202        -0.6600    -3.5210     4.1520 h1         1 CHY       0.058200
     56 HN41        -5.3970    -5.4220     2.9490 hn         1 CHY       0.393400
     57 H18         -3.5230    -2.0770     2.1930 h1         1 CHY       0.048700
     58 HN3         -3.9120    -4.5940     1.0000 hn         1 CHY       0.434800
     59 HN6         -2.5220    -0.3000     0.0210 hn         1 CHY       0.322500
     60 H17         -2.2100    -3.2060    -0.3090 h1         1 CHY       0.094700
     61 HN2         -4.4110    -4.2710    -0.6880 hn         1 CHY       0.335500
     62 H11         -6.6260    -2.3710    -1.0990 h1         1 CHY       0.090700
     63 H121        -5.2490    -3.7600    -3.4280 hc         1 CHY       0.066700
     64 H122        -5.2210    -2.0210    -3.1030 hc         1 CHY       0.066700
     65 H13         -7.7610    -3.6280    -3.5480 hc         1 CHY       0.064700
     66 H141        -8.7770    -1.3890    -3.7860 hc         1 CHY       0.034700
     67 H142        -7.2060    -0.6390    -3.4750 hc         1 CHY       0.034700
     68 H143        -8.0120    -1.5640    -2.2010 hc         1 CHY       0.034700
     69 H151        -6.2550    -1.7980    -5.4520 hc         1 CHY       0.034700
     70 H152        -6.3460    -3.5600    -5.5850 hc         1 CHY       0.034700
     71 H153        -7.8070    -2.5810    -5.7780 hc         1 CHY       0.034700
     72 HN1         -8.6550    -3.5930    -1.9140 hn         1 CHY       0.327500
     73 H8          -8.6260    -6.1590    -0.4880 h1         1 CHY       0.104700
     74 H9          -9.5100    -7.4850    -2.5320 h4         1 CHY      -0.003800
     75 H71        -10.8410    -4.6140    -1.8830 hc         1 CHY       0.056200
     76 H72        -11.0870    -6.1020    -0.9570 hc         1 CHY       0.056200
     77 H3         -10.2290    -2.5400    -0.7770 ha         1 CHY       0.126000
     78 H5         -10.8240    -6.1320     1.4560 ha         1 CHY       0.126000
     79 H2         -10.3140    -1.2280     1.3100 ha         1 CHY       0.133500
     80 H6         -10.9100    -4.8200     3.5420 ha         1 CHY       0.133500
     81 H1         -10.6550    -2.3690     3.4700 ha         1 CHY       0.133000
     82 H191        -0.9590    -3.6140     1.8260 hc         1 CHY       0.096200
     83 H192        -1.1840    -1.8170     2.4090 hc         1 CHY       0.096200
     84 H41         -1.9840    -5.4170     4.2910 hn         1 CHY       0.448800
@<TRIPOS>BOND
     1    44    42 ar
     2    44    43 ar
     3    44    81 1
     4    42    40 ar
     5    42    79 1
     6    40    39 ar
     7    40    77 1
     8    39    41 ar
     9    39    38 1
    10    41    43 ar
    11    41    78 1
    12    43    80 1
    13    38    35 1
    14    38    75 1
    15    38    76 1
    16    35    36 1
    17    35    34 1
    18    35    73 1
    19    36    37 2
    20    36    74 1
    21    28    27 1
    22    28    34 1
    23    28    29 2
    24    27    30 1
    25    27    26 1
    26    27    62 1
    27    30    31 1
    28    30    63 1
    29    30    64 1
    30    31    32 1
    31    31    33 1
    32    31    65 1
    33    32    66 1
    34    32    67 1
    35    32    68 1
    36    33    69 1
    37    33    70 1
    38    33    71 1
    39    22    21 1
    40    22    26 1
    41    22    23 2
    42    21    17 1
    43    21    20 1
    44    21    60 1
    45    17    18 1
    46    17    19 1
    47    17    57 1
    48    18    15 1
    49    18    82 1
    50    18    83 1
    51    15    13 1
    52    15    54 1
    53    15    55 1
    54    14    19 1
    55    14    16 2
    56    14    13 1
    57    25    20 1
    58    25     1 1
    59    25    24 2
    60     2     3 1
    61     2     5 1
    62     2     1 1
    63     2    46 1
    64     3    12 1
    65     3     4 1
    66     5     6 1
    67     5    47 1
    68     5    48 1
    69     6     7 ar
    70     6     8 ar
    71     7     9 ar
    72     7    49 1
    73     9    11 ar
    74     9    51 1
    75    11    10 ar
    76    11    53 1
    77    10     8 ar
    78    10    52 1
    79     8    50 1
    80    34    72 1
    81    26    61 1
    82    19    58 1
    83    16    56 1
    84    20    59 1
    85     1    45 1
    86    13    84 1
@<TRIPOS>SUBSTRUCTURE
     1 CHY         1 TEMP              0 ****  ****    0 ROOT
