@<TRIPOS>MOLECULE
CHY
   84    86     1     0     0
SMALL
bcc


@<TRIPOS>ATOM
      1 N7           0.0000     0.0000     0.0000 ns         1 CHY      -0.154900
      2 C23          1.4650     0.0000     0.0000 c3         1 CHY      -0.081300
      3 C24          1.9670     0.0000     1.4210 c          1 CHY       0.976600
      4 O5           1.1820     0.0000     2.3390 o          1 CHY      -0.890300
      5 C25          1.9740     1.2500    -0.7210 c3         1 CHY       0.024900
      6 C26          1.5770     1.1890    -2.1730 ca         1 CHY      -0.064300
      7 C27          0.3710     1.7270    -2.5820 ca         1 CHY      -0.102500
      8 C31          2.4190     0.6000    -3.0970 ca         1 CHY      -0.102500
      9 C28          0.0050     1.6720    -3.9140 ca         1 CHY      -0.107500
     10 C30          2.0520     0.5420    -4.4290 ca         1 CHY      -0.107500
     11 C29          0.8460     1.0780    -4.8380 ca         1 CHY      -0.128000
     12 O4           3.2870     0.0000     1.6660 o          1 CHY      -0.890300
     13 N5          -2.3490    -4.6350     3.7840 nu         1 CHY      -0.613200
     14 C21         -3.5180    -4.7370     3.0470 c2         1 CHY       0.595100
     15 C20         -1.6650    -3.3320     3.7930 c3         1 CHY       0.174800
     16 N4          -4.5660    -5.3640     3.5040 n2         1 CHY      -0.824100
     17 C18         -2.9010    -2.8050     1.6860 c3         1 CHY       0.129500
     18 C19         -1.5180    -2.8450     2.3470 c3         1 CHY      -0.070400
     19 N3          -3.5150    -4.1370     1.7970 nu         1 CHY      -0.549200
     20 N6          -2.0220    -1.1630     0.1010 ns         1 CHY      -0.224900
     21 C17         -2.7540    -2.4270     0.2110 c3         1 CHY      -0.030300
     22 C16         -4.1210    -2.2720    -0.4050 c          1 CHY       0.571100
     23 O2          -4.6050    -1.1680    -0.5360 o          1 CHY      -0.665100
     24 O3          -0.0660    -2.2120     0.1930 o          1 CHY      -0.718100
     25 C22         -0.6740    -1.1630     0.1010 c          1 CHY       0.582100
     26 N2          -4.8040    -3.3590    -0.8130 ns         1 CHY      -0.181900
     27 C11         -6.0760    -3.2030    -1.5230 c3         1 CHY      -0.056300
     28 C10         -6.8870    -4.4650    -1.3850 c          1 CHY       0.583100
     29 O1          -6.3440    -5.5050    -1.0770 o          1 CHY      -0.646100
     30 C12         -5.8020    -2.9300    -3.0040 c3         1 CHY      -0.037400
     31 C13         -7.1300    -2.7700    -3.7470 c3         1 CHY      -0.084700
     32 C14         -7.8320    -1.4980    -3.2670 c3         1 CHY       0.001900
     33 C15         -6.8650    -2.6700    -5.2500 c3         1 CHY       0.001900
     34 N1          -8.2160    -4.4380    -1.6050 ns         1 CHY      -0.186900
     35 C8          -9.0250    -5.6310    -1.3460 c3         1 CHY      -0.104300
     36 C9          -8.9900    -6.5350    -2.5520 c          1 CHY       0.643900
     37 O6          -8.3550    -6.2140    -3.5280 o          1 CHY      -0.542100
     38 C7         -10.4710    -5.2170    -1.0620 c3         1 CHY       0.034900
     39 C4         -10.5220    -4.4150     0.2140 ca         1 CHY      -0.105300
     40 C3         -10.3780    -3.0410     0.1720 ca         1 CHY      -0.097000
     41 C5         -10.7120    -5.0550     1.4240 ca         1 CHY      -0.097000
     42 C2         -10.4260    -2.3050     1.3420 ca         1 CHY      -0.090000
     43 C6         -10.7600    -4.3190     2.5940 ca         1 CHY      -0.090000
     44 C1         -10.6170    -2.9450     2.5530 ca         1 CHY      -0.093000
     45 HN7         -0.5000     0.8650    -0.0480 hn         1 CHY       0.152500
     46 H23          1.8270    -0.8840    -0.5110 h1         1 CHY       0.059700
     47 H251         3.0540     1.2970    -0.6430 hc         1 CHY       0.035200
     48 H252         1.5410     2.1310    -0.2640 hc         1 CHY       0.035200
     49 H27         -0.2880     2.1920    -1.8590 ha         1 CHY       0.109000
     50 H31          3.3650     0.1790    -2.7770 ha         1 CHY       0.109000
     51 H28         -0.9400     2.0930    -4.2340 ha         1 CHY       0.091500
     52 H30          2.7110     0.0790    -5.1530 ha         1 CHY       0.091500
     53 H29          0.5590     1.0330    -5.8810 ha         1 CHY       0.090000
     54 H201        -0.6600    -3.5210     4.1520 h1         1 CHY       0.028200
     55 H202        -2.3420    -2.6400     4.2770 h1         1 CHY       0.028200
     56 HN41        -4.5390    -5.7890     4.4100 hn         1 CHY       0.317400
     57 H18         -3.5230    -2.0770     2.1930 h1         1 CHY       0.028700
     58 HN3         -3.9150    -4.5920     1.0010 hn         1 CHY       0.305800
     59 HN6         -2.5220    -0.2980     0.0450 hn         1 CHY       0.186500
     60 H17         -2.2100    -3.2060    -0.3090 h1         1 CHY       0.067700
     61 HN2         -4.4270    -4.2740    -0.6580 hn         1 CHY       0.207500
     62 H11         -6.6260    -2.3710    -1.0990 h1         1 CHY       0.067700
     63 H121        -5.2490    -3.7600    -3.4280 hc         1 CHY       0.037700
     64 H122        -5.2210    -2.0210    -3.1030 hc         1 CHY       0.037700
     65 H13         -7.7610    -3.6280    -3.5480 hc         1 CHY       0.043700
     66 H141        -8.8640    -1.5080    -3.5970 hc         1 CHY       0.004867
     67 H142        -7.3300    -0.6310    -3.6790 hc         1 CHY       0.004867
     68 H143        -7.8000    -1.4540    -2.1850 hc         1 CHY       0.004867
     69 H151        -7.8060    -2.5580    -5.7760 hc         1 CHY       0.004867
     70 H152        -6.3670    -3.5700    -5.5890 hc         1 CHY       0.004867
     71 H153        -6.2350    -1.8120    -5.4490 hc         1 CHY       0.004867
     72 HN1         -8.6570    -3.5890    -1.8990 hn         1 CHY       0.196500
     73 H8          -8.6260    -6.1590    -0.4880 h1         1 CHY       0.081700
     74 H9          -9.5090    -7.4850    -2.5320 h4         1 CHY      -0.039800
     75 H71        -11.0870    -6.1020    -0.9580 hc         1 CHY       0.023700
     76 H72        -10.8410    -4.6140    -1.8830 hc         1 CHY       0.023700
     77 H3         -10.2290    -2.5400    -0.7770 ha         1 CHY       0.103000
     78 H5         -10.8240    -6.1320     1.4560 ha         1 CHY       0.103000
     79 H2         -10.3140    -1.2280     1.3100 ha         1 CHY       0.105000
     80 H6         -10.9100    -4.8200     3.5420 ha         1 CHY       0.105000
     81 H1         -10.6550    -2.3690     3.4700 ha         1 CHY       0.105000
     82 H191        -0.9590    -3.6140     1.8260 hc         1 CHY       0.073200
     83 H192        -1.1840    -1.8170     2.4090 hc         1 CHY       0.073200
     84 H41         -1.9830    -5.4180     4.2900 hn         1 CHY       0.300800
@<TRIPOS>BOND
     1     1     2 1   
     2     1    25 1   
     3     1    45 1   
     4     2     3 1   
     5     2     5 1   
     6     2    46 1   
     7     3     4 1   
     8     3    12 1   
     9     5     6 1   
    10     5    47 1   
    11     5    48 1   
    12     6     7 ar  
    13     6     8 ar  
    14     7     9 ar  
    15     7    49 1   
    16     8    10 ar  
    17     8    50 1   
    18     9    11 ar  
    19     9    51 1   
    20    10    11 ar  
    21    10    52 1   
    22    11    53 1   
    23    13    14 1   
    24    13    15 1   
    25    13    84 1   
    26    14    16 2   
    27    14    19 1   
    28    15    18 1   
    29    15    54 1   
    30    15    55 1   
    31    16    56 1   
    32    17    18 1   
    33    17    19 1   
    34    17    21 1   
    35    17    57 1   
    36    18    82 1   
    37    18    83 1   
    38    19    58 1   
    39    20    21 1   
    40    20    25 1   
    41    20    59 1   
    42    21    22 1   
    43    21    60 1   
    44    22    23 2   
    45    22    26 1   
    46    24    25 2   
    47    26    27 1   
    48    26    61 1   
    49    27    28 1   
    50    27    30 1   
    51    27    62 1   
    52    28    29 2   
    53    28    34 1   
    54    30    31 1   
    55    30    63 1   
    56    30    64 1   
    57    31    32 1   
    58    31    33 1   
    59    31    65 1   
    60    32    66 1   
    61    32    67 1   
    62    32    68 1   
    63    33    69 1   
    64    33    70 1   
    65    33    71 1   
    66    34    35 1   
    67    34    72 1   
    68    35    36 1   
    69    35    38 1   
    70    35    73 1   
    71    36    37 2   
    72    36    74 1   
    73    38    39 1   
    74    38    75 1   
    75    38    76 1   
    76    39    40 ar  
    77    39    41 ar  
    78    40    42 ar  
    79    40    77 1   
    80    41    43 ar  
    81    41    78 1   
    82    42    44 ar  
    83    42    79 1   
    84    43    44 ar  
    85    43    80 1   
    86    44    81 1   
@<TRIPOS>SUBSTRUCTURE
     1 CHY         1 TEMP              0 ****  ****    0 ROOT
