@<TRIPOS>MOLECULE
molecule
   26    28     1     0     0
SMALL
bcc


@<TRIPOS>ATOM
      1 OAA          0.0000     0.0000     0.0000 o          1 CHZ      -0.512100
      2 CAM          1.2160     0.0000     0.0000 c          1 CHZ       0.590300
      3 CAO          1.9650     0.0000     1.2760 ca         1 CHZ      -0.115100
      4 CAI          1.3210    -0.2840     2.4740 ca         1 CHZ      -0.101000
      5 CAE          2.0350    -0.2800     3.6620 ca         1 CHZ      -0.095500
      6 CAG          3.3860     0.0050     3.6680 ca         1 CHZ      -0.175000
      7 CAK          4.0500     0.2920     2.4780 ca         1 CHZ       0.161600
      8 OAC          5.3760     0.5720     2.4890 oh         1 CHZ      -0.484100
      9 CAQ          3.3430     0.2910     1.2730 ca         1 CHZ      -0.151100
     10 CAN          4.0250     0.5910     0.0010 c          1 CHZ       0.580300
     11 OAB          5.1380     1.0820     0.0010 o          1 CHZ      -0.467100
     12 CAR          3.3430     0.2890    -1.2730 ca         1 CHZ      -0.151100
     13 CAP          1.9650    -0.0070    -1.2750 ca         1 CHZ      -0.115100
     14 CAJ          1.3210    -0.2970    -2.4720 ca         1 CHZ      -0.101000
     15 CAF          2.0370    -0.3010    -3.6590 ca         1 CHZ      -0.095500
     16 CAH          3.3880    -0.0170    -3.6660 ca         1 CHZ      -0.175000
     17 CAL          4.0510     0.2880    -2.4770 ca         1 CHZ       0.161600
     18 OAD          5.3780     0.5670    -2.4870 oh         1 CHZ      -0.484100
     19 HAI          0.2610    -0.5090     2.4790 ha         1 CHZ       0.156000
     20 HAE          1.5290    -0.5030     4.5930 ha         1 CHZ       0.140000
     21 HAG          3.9320     0.0040     4.6040 ha         1 CHZ       0.142500
     22 HOAC         5.8450    -0.1410     2.8900 ho         1 CHZ       0.425500
     23 HAJ          0.2610    -0.5210    -2.4780 ha         1 CHZ       0.156000
     24 HAF          1.5330    -0.5370    -4.5890 ha         1 CHZ       0.140000
     25 HAH          3.9350    -0.0240    -4.6010 ha         1 CHZ       0.142500
     26 HOAD         5.5520     1.2470    -3.1170 ho         1 CHZ       0.425500
@<TRIPOS>BOND
     1     1     2 2
     2     2     3 1
     3     2    13 1
     4     3     4 ar
     5     3     9 ar
     6     4     5 ar
     7     5     6 ar
     8     6     7 ar
     9     7     8 1
    10     7     9 ar
    11     9    10 1
    12    10    11 2
    13    10    12 1
    14    12    13 ar
    15    12    17 ar
    16    13    14 ar
    17    14    15 ar
    18    15    16 ar
    19    16    17 ar
    20    17    18 1
    21     4    19 1
    22     5    20 1
    23     6    21 1
    24     8    22 1
    25    14    23 1
    26    15    24 1
    27    16    25 1
    28    18    26 1
@<TRIPOS>SUBSTRUCTURE
     1 CHZ         1 TEMP              0 ****  ****    0 ROOT
