@<TRIPOS>MOLECULE
CHZ
   26    28     1     0     0
SMALL
bcc


@<TRIPOS>ATOM
      1 OAA        -0.0610    0.0670    0.0010 o         1 CHZ     -0.516100
      2 CAM         1.1760    0.0840    0.0010 c         1 CHZ      0.584300
      3 CAO         1.9580    0.0780    1.2580 ca        1 CHZ     -0.101600
      4 CAI         1.3250   -0.2960    2.4460 ca        1 CHZ     -0.123000
      5 CAE         2.0460   -0.3390    3.6410 ca        1 CHZ     -0.081000
      6 CAG         3.3950   -0.0110    3.6560 ca        1 CHZ     -0.203000
      7 CAK         4.0320    0.3770    2.4620 ca        1 CHZ      0.166100
      8 OAC         5.3640    0.6950    2.4240 oh        1 CHZ     -0.462100
      9 CAQ         3.3170    0.4340    1.2490 ca        1 CHZ     -0.155600
     10 CAN         3.9690    0.8840   -0.0010 c         1 CHZ      0.594300
     11 OAB         4.9680    1.6080   -0.0020 o         1 CHZ     -0.472100
     12 CAR         3.3170    0.4290   -1.2490 ca        1 CHZ     -0.155600
     13 CAP         1.9580    0.0720   -1.2560 ca        1 CHZ     -0.101600
     14 CAJ         1.3260   -0.3070   -2.4430 ca        1 CHZ     -0.123000
     15 CAF         2.0470   -0.3550   -3.6370 ca        1 CHZ     -0.081000
     16 CAH         3.3960   -0.0260   -3.6540 ca        1 CHZ     -0.203000
     17 CAL         4.0320    0.3670   -2.4620 ca        1 CHZ      0.166100
     18 OAD         5.3650    0.6840   -2.4240 oh        1 CHZ     -0.462100
     19 HAI         0.2540   -0.5520    2.4280 ha        1 CHZ      0.160000
     20 HAE         1.5420   -0.6350    4.5740 ha        1 CHZ      0.142000
     21 HAG         3.9690   -0.0470    4.5940 ha        1 CHZ      0.141000
     22 HOAC        5.7100    0.6550    3.3290 ho        1 CHZ      0.421000
     23 HAJ         0.2540   -0.5620   -2.4240 ha        1 CHZ      0.160000
     24 HAF         1.5430   -0.6550   -4.5690 ha        1 CHZ      0.142000
     25 HAH         3.9700   -0.0670   -4.5910 ha        1 CHZ      0.141000
     26 HOAD        5.7110    0.6410   -3.3290 ho        1 CHZ      0.421000
@<TRIPOS>BOND
     1    1    2 2   
     2    2    3 1   
     3    2   13 1   
     4    3    4 ar  
     5    3    9 ar  
     6    4    5 ar  
     7    4   19 1   
     8    5    6 ar  
     9    5   20 1   
    10    6    7 ar  
    11    6   21 1   
    12    7    8 1   
    13    7    9 ar  
    14    8   22 1   
    15    9   10 1   
    16   10   11 2   
    17   10   12 1   
    18   12   13 ar  
    19   12   17 ar  
    20   13   14 ar  
    21   14   15 ar  
    22   14   23 1   
    23   15   16 ar  
    24   15   24 1   
    25   16   17 ar  
    26   16   25 1   
    27   17   18 1   
    28   18   26 1   
@<TRIPOS>SUBSTRUCTURE
     1 CHZ         1 TEMP              0 ****  ****    0 ROOT
