@<TRIPOS>MOLECULE
CI1
   55    57     1     0     0
SMALL
bcc


@<TRIPOS>ATOM
      1 O32          0.0000     0.0000     0.0000 o          1 CI1      -0.558800
      2 S30          1.4210     0.0000     0.0000 s6         1 CI1       0.961900
      3 O31          2.1530     0.0000     1.2170 o          1 CI1      -0.558800
      4 CP           2.0570    -1.2720    -1.1250 c3         1 CI1       0.029700
      5 CGB          1.7440    -2.6370    -0.5700 ca         1 CI1      -0.069300
      6 CD2          0.5570    -3.2640    -0.9040 ca         1 CI1      -0.086500
      7 CE2          0.2690    -4.5160    -0.3930 ca         1 CI1      -0.098500
      8 CZ           1.1680    -5.1420     0.4500 ca         1 CI1      -0.106000
      9 CE1          2.3550    -4.5160     0.7830 ca         1 CI1      -0.098500
     10 CD1          2.6440    -3.2660     0.2700 ca         1 CI1      -0.086500
     11 NJ           1.8290     1.4320    -0.7230 n3         1 CI1      -0.524500
     12 CI           0.9130     2.0800    -1.6720 c3         1 CI1       0.230800
     13 CK           0.6720     3.5240    -1.2180 c3         1 CI1      -0.046400
     14 CG           2.0170     4.2350    -1.0580 c3         1 CI1      -0.011400
     15 CH           3.1110     2.0840    -0.4230 c3         1 CI1       0.234800
     16 CF           2.8480     3.5250     0.0130 c3         1 CI1      -0.168000
     17 CB           2.0920     3.5210     1.3170 c          1 CI1       0.613300
     18 O13          1.8890     2.4760     1.8980 o          1 CI1      -0.552100
     19 CM           1.6190     4.7390     1.8630 ce         1 CI1      -0.412200
     20 CA           1.0290     4.7500     3.0830 cf         1 CI1       0.180900
     21 O14          0.8920     3.5990     3.7780 oh         1 CI1      -0.468100
     22 CE           0.5330     6.0250     3.6550 c          1 CI1       0.931800
     23 OAN         -0.0530     6.0360     4.8670 o          1 CI1      -0.867300
     24 OAO          0.6570     7.0590     3.0310 o          1 CI1      -0.867300
     25 CO           4.1790     4.2560     0.1950 c3         1 CI1       0.044900
     26 CGA          5.0250     3.5170     1.2010 ca         1 CI1      -0.082300
     27 CDB          5.9400     2.5730     0.7730 ca         1 CI1      -0.083500
     28 CEB          6.7150     1.8960     1.6950 ca         1 CI1      -0.096500
     29 CDA          4.8890     3.7880     2.5490 ca         1 CI1      -0.083500
     30 CEA          5.6640     3.1110     3.4720 ca         1 CI1      -0.096500
     31 CZB          6.5760     2.1630     3.0460 ca         1 CI1      -0.030600
     32 Cl           7.5510     1.3120     4.2030 cl         1 CI1      -0.062400
     33 HP1C         3.1300    -1.1610    -1.2270 h1         1 CI1       0.063700
     34 HP2C         1.5890    -1.1620    -2.0960 h1         1 CI1       0.063700
     35 HD2         -0.1470    -2.7740    -1.5650 ha         1 CI1       0.113000
     36 HD1          3.5740    -2.7750     0.5310 ha         1 CI1       0.113000
     37 HE2         -0.6600    -5.0080    -0.6550 ha         1 CI1       0.100000
     38 HZ           0.9420    -6.1230     0.8510 ha         1 CI1       0.097000
     39 HE1          3.0600    -5.0070     1.4430 ha         1 CI1       0.100000
     40 HI1C        -0.0280     1.5440    -1.6910 h1         1 CI1       0.011700
     41 HI2C         1.3570     2.0810    -2.6610 h1         1 CI1       0.011700
     42 HH1C         3.7340     2.0830    -1.3100 h1         1 CI1       0.028200
     43 HH2C         3.6100     1.5500     0.3770 h1         1 CI1       0.028200
     44 HK1C         0.1500     3.5200    -0.2690 hc         1 CI1       0.030700
     45 HK2C         0.0770     4.0400    -1.9620 hc         1 CI1       0.030700
     46 HG1C         2.5500     4.2130    -2.0010 hc         1 CI1       0.017700
     47 HG2C         1.8470     5.2620    -0.7580 hc         1 CI1       0.017700
     48 HO1C         4.7010     4.2990    -0.7530 hc         1 CI1       0.023200
     49 HO2C         3.9930     5.2620     0.5500 hc         1 CI1       0.023200
     50 HM           1.7290     5.6610     1.3060 ha         1 CI1       0.145000
     51 H14          0.0110     3.5350     4.1090 ho         1 CI1       0.417000
     52 HDB          6.0490     2.3640    -0.2850 ha         1 CI1       0.119000
     53 HDA          4.1740     4.5310     2.8830 ha         1 CI1       0.119000
     54 HEB          7.4310     1.1540     1.3600 ha         1 CI1       0.109500
     55 HEA          5.5560     3.3220     4.5290 ha         1 CI1       0.109500
@<TRIPOS>BOND
     1     1     2 2   
     2     2     3 2   
     3     2     4 1   
     4     2    11 1   
     5     4     5 1   
     6     4    33 1   
     7     4    34 1   
     8     5     6 ar  
     9     5    10 ar  
    10     6     7 ar  
    11     6    35 1   
    12     7     8 ar  
    13     7    37 1   
    14     8     9 ar  
    15     8    38 1   
    16     9    10 ar  
    17     9    39 1   
    18    10    36 1   
    19    11    12 1   
    20    11    15 1   
    21    12    13 1   
    22    12    40 1   
    23    12    41 1   
    24    13    14 1   
    25    13    44 1   
    26    13    45 1   
    27    14    16 1   
    28    14    46 1   
    29    14    47 1   
    30    15    16 1   
    31    15    42 1   
    32    15    43 1   
    33    16    17 1   
    34    16    25 1   
    35    17    18 2   
    36    17    19 1   
    37    19    20 2   
    38    19    50 1   
    39    20    21 1   
    40    20    22 1   
    41    21    51 1   
    42    22    23 1   
    43    22    24 1   
    44    25    26 1   
    45    25    48 1   
    46    25    49 1   
    47    26    27 ar  
    48    26    29 ar  
    49    27    28 ar  
    50    27    52 1   
    51    28    31 ar  
    52    28    54 1   
    53    29    30 ar  
    54    29    53 1   
    55    30    31 ar  
    56    30    55 1   
    57    31    32 1   
@<TRIPOS>SUBSTRUCTURE
     1 CI1         1 TEMP              0 ****  ****    0 ROOT
