@<TRIPOS>MOLECULE
molecule
   55    58     1     0     0
SMALL
bcc


@<TRIPOS>ATOM
      1 C1           0.0000     0.0000     0.0000 c3         1 CI2      -0.194100
      2 C2           1.5070     0.0000     0.0000 c          1 CI2       0.575100
      3 O3           2.1100    -0.0020    -1.0460 o          1 CI2      -0.530100
      4 C4           2.2610     0.0000     1.3050 c3         1 CI2      -0.160700
      5 C5           3.6590    -0.6390     1.1180 c3         1 CI2      -0.075400
      6 C6           4.6920     0.4330     1.5600 c3         1 CI2      -0.076400
      7 C7           3.8820     1.3190     2.5130 c3         1 CI2      -0.065700
      8 C8           4.4120     2.7260     2.7190 c3         1 CI2      -0.062700
      9 C9           5.7930     2.6870     3.3700 c3         1 CI2      -0.077400
     10 C10          6.2850     4.1160     3.6130 c3         1 CI2      -0.078400
     11 C11          5.3060     4.8380     4.5420 c3         1 CI2      -0.049700
     12 C12          5.2170     4.0680     5.8650 c3         1 CI2      -0.182400
     13 C13          4.1330     4.6910     6.7160 c          1 CI2       0.568100
     14 O14          4.3530     5.0190     7.8580 o          1 CI2      -0.525100
     15 C15          2.7660     4.8920     6.1000 c3         1 CI2      -0.183400
     16 C16          2.9390     5.6360     4.7710 c3         1 CI2      -0.067400
     17 C17          3.9280     4.8910     3.8780 c3         1 CI2      -0.059000
     18 C18          4.0260     5.6050     2.5280 c3         1 CI2      -0.088100
     19 C19          3.4200     3.4570     3.6370 c3         1 CI2      -0.058700
     20 C20          2.0130     3.4920     3.0470 c3         1 CI2      -0.079400
     21 C21          1.5160     2.0780     2.7010 c3         1 CI2      -0.062400
     22 C22          2.5260     1.4310     1.7610 c3         1 CI2      -0.057000
     23 C23          2.7490     2.3310     0.5440 c3         1 CI2      -0.100100
     24 H24         -0.3610     0.9850    -0.2700 hc         1 CI2       0.059700
     25 H25         -0.3610    -0.2590     0.9880 hc         1 CI2       0.059700
     26 H26         -0.3610    -0.7260    -0.7180 hc         1 CI2       0.059700
     27 H27          1.7050    -0.5360     2.0650 hc         1 CI2       0.064700
     28 H28          3.7500    -1.5210     1.7410 hc         1 CI2       0.056700
     29 H29          3.8130    -0.8950     0.0770 hc         1 CI2       0.056700
     30 H30          5.5220    -0.0290     2.0820 hc         1 CI2       0.049700
     31 H31          5.0380     1.0050     0.7070 hc         1 CI2       0.049700
     32 H32          3.7440     0.8230     3.4660 hc         1 CI2       0.055700
     33 H33          4.4720     3.2370     1.7650 hc         1 CI2       0.067700
     34 H34          5.7310     2.1630     4.3160 hc         1 CI2       0.045200
     35 H35          6.4860     2.1760     2.7130 hc         1 CI2       0.045200
     36 H36          6.3400     4.6430     2.6680 hc         1 CI2       0.047200
     37 H37          7.2650     4.0870     4.0740 hc         1 CI2       0.047200
     38 H38          5.6580     5.8450     4.7310 hc         1 CI2       0.058700
     39 H39          6.1660     4.1290     6.3850 hc         1 CI2       0.072200
     40 H40          4.9710     3.0320     5.6660 hc         1 CI2       0.072200
     41 H41          2.3030     3.9300     5.9210 hc         1 CI2       0.068700
     42 H42          2.1490     5.4810     6.7690 hc         1 CI2       0.068700
     43 H43          3.3130     6.6330     4.9660 hc         1 CI2       0.050700
     44 H44          1.9810     5.6980     4.2690 hc         1 CI2       0.050700
     45 H45          4.6460     5.0240     1.8560 hc         1 CI2       0.039367
     46 H46          3.0350     5.7120     2.1030 hc         1 CI2       0.039367
     47 H47          4.4660     6.5850     2.6680 hc         1 CI2       0.039367
     48 H48          3.3830     2.9390     4.5880 hc         1 CI2       0.050700
     49 H49          1.3390     3.9370     3.7690 hc         1 CI2       0.047200
     50 H50          2.0230     4.0940     2.1460 hc         1 CI2       0.047200
     51 H51          0.5520     2.1420     2.2110 hc         1 CI2       0.042200
     52 H52          1.4320     1.4900     3.6070 hc         1 CI2       0.042200
     53 H53          3.0580     3.3160     0.8740 hc         1 CI2       0.045033
     54 H54          1.8280     2.4120    -0.0200 hc         1 CI2       0.045033
     55 H55          3.5210     1.9030    -0.0850 hc         1 CI2       0.045033
@<TRIPOS>BOND
     1     1     2 1
     2     1    24 1
     3     1    25 1
     4     1    26 1
     5     2     3 2
     6     2     4 1
     7     4     5 1
     8     4    22 1
     9     4    27 1
    10     5     6 1
    11     5    28 1
    12     5    29 1
    13     6     7 1
    14     6    30 1
    15     6    31 1
    16     7     8 1
    17     7    22 1
    18     7    32 1
    19     8     9 1
    20     8    19 1
    21     8    33 1
    22     9    10 1
    23     9    34 1
    24     9    35 1
    25    10    11 1
    26    10    36 1
    27    10    37 1
    28    11    12 1
    29    11    17 1
    30    11    38 1
    31    12    13 1
    32    12    39 1
    33    12    40 1
    34    13    14 2
    35    13    15 1
    36    15    16 1
    37    15    41 1
    38    15    42 1
    39    16    17 1
    40    16    43 1
    41    16    44 1
    42    17    18 1
    43    17    19 1
    44    18    45 1
    45    18    46 1
    46    18    47 1
    47    19    20 1
    48    19    48 1
    49    20    21 1
    50    20    49 1
    51    20    50 1
    52    21    22 1
    53    21    51 1
    54    21    52 1
    55    22    23 1
    56    23    53 1
    57    23    54 1
    58    23    55 1
@<TRIPOS>SUBSTRUCTURE
     1 CI2         1 TEMP              0 ****  ****    0 ROOT
