@<TRIPOS>MOLECULE
CI2
   55    58     1     0     0
SMALL
bcc


@<TRIPOS>ATOM
      1 C1         -0.0710   -0.3400    0.4010 c3        1 CI2     -0.204100
      2 C2          1.3790   -0.2210    0.0460 c         1 CI2      0.576100
      3 O3          1.7720   -0.3270   -1.1200 o         1 CI2     -0.533100
      4 C4          2.3080    0.0050    1.2100 c3        1 CI2     -0.164700
      5 C5          3.7100   -0.5880    0.9780 c3        1 CI2     -0.075400
      6 C6          4.7250    0.4050    1.5510 c3        1 CI2     -0.072400
      7 C7          3.8810    1.4060    2.3280 c3        1 CI2     -0.061700
      8 C8          4.4450    2.7770    2.6370 c3        1 CI2     -0.048700
      9 C9          5.7820    2.6650    3.3510 c3        1 CI2     -0.074400
     10 C10         6.2950    4.0210    3.7800 c3        1 CI2     -0.074400
     11 C11         5.2870    4.7950    4.6180 c3        1 CI2     -0.046700
     12 C12         5.1850    4.1710    6.0020 c3        1 CI2     -0.181400
     13 C13         4.1250    4.7990    6.8560 c         1 CI2      0.571100
     14 O14         4.3240    5.1090    8.0350 o         1 CI2     -0.533100
     15 C15         2.7920    4.9860    6.1900 c3        1 CI2     -0.182400
     16 C16         2.9500    5.6410    4.8380 c3        1 CI2     -0.070400
     17 C17         3.9260    4.9170    3.9010 c3        1 CI2     -0.039000
     18 C18         4.0910    5.8150    2.6770 c3        1 CI2     -0.089100
     19 C19         3.4190    3.5180    3.5130 c3        1 CI2     -0.046700
     20 C20         2.0410    3.5470    2.8600 c3        1 CI2     -0.074400
     21 C21         1.5420    2.1830    2.4090 c3        1 CI2     -0.066400
     22 C22         2.5660    1.5000    1.5180 c3        1 CI2     -0.038000
     23 C23         2.7110    2.2540    0.2060 c3        1 CI2     -0.091100
     24 H24        -0.3660    0.4890    1.0900 hc        1 CI2      0.063367
     25 H25        -0.2440   -1.3150    0.9200 hc        1 CI2      0.063367
     26 H26        -0.7080   -0.3020   -0.5150 hc        1 CI2      0.063367
     27 H27         1.8500   -0.4720    2.1190 hc        1 CI2      0.061700
     28 H28         3.8900   -0.7430   -0.1170 hc        1 CI2      0.056200
     29 H29         3.7940   -1.5800    1.4850 hc        1 CI2      0.056200
     30 H30         5.4650   -0.1040    2.2160 hc        1 CI2      0.046200
     31 H31         5.2920    0.9120    0.7310 hc        1 CI2      0.046200
     32 H32         3.6310    0.9200    3.3180 hc        1 CI2      0.044700
     33 H33         4.6040    3.3410    1.6780 hc        1 CI2      0.059700
     34 H34         6.5250    2.1830    2.6620 hc        1 CI2      0.042200
     35 H35         5.6780    1.9940    4.2440 hc        1 CI2      0.042200
     36 H36         6.5510    4.6270    2.8700 hc        1 CI2      0.044200
     37 H37         7.2400    3.8900    4.3700 hc        1 CI2      0.044200
     38 H38         5.6840    5.8430    4.7520 hc        1 CI2      0.052700
     39 H39         6.1810    4.2560    6.5150 hc        1 CI2      0.070200
     40 H40         4.9440    3.0760    5.9200 hc        1 CI2      0.070200
     41 H41         2.1260    5.6130    6.8390 hc        1 CI2      0.068700
     42 H42         2.3090    3.9780    6.0840 hc        1 CI2      0.068700
     43 H43         1.9460    5.7220    4.3470 hc        1 CI2      0.048700
     44 H44         3.3250    6.6900    4.9890 hc        1 CI2      0.048700
     45 H45         4.5650    6.7830    2.9720 hc        1 CI2      0.038033
     46 H46         4.7320    5.3350    1.9020 hc        1 CI2      0.038033
     47 H47         3.0950    6.0400    2.2240 hc        1 CI2      0.038033
     48 H48         3.3170    2.9280    4.4700 hc        1 CI2      0.043700
     49 H49         2.0570    4.2410    1.9780 hc        1 CI2      0.043200
     50 H50         1.2990    3.9570    3.5960 hc        1 CI2      0.043200
     51 H51         1.3350    1.5410    3.3050 hc        1 CI2      0.040200
     52 H52         0.5750    2.3150    1.8560 hc        1 CI2      0.040200
     53 H53         3.0520    3.3040    0.3700 hc        1 CI2      0.043700
     54 H54         3.4470    1.7360   -0.4570 hc        1 CI2      0.043700
     55 H55         1.7260    2.2860   -0.3220 hc        1 CI2      0.043700
@<TRIPOS>BOND
     1    1    2 1   
     2    1   24 1   
     3    1   25 1   
     4    1   26 1   
     5    2    3 2   
     6    2    4 1   
     7    4    5 1   
     8    4   22 1   
     9    4   27 1   
    10    5    6 1   
    11    5   28 1   
    12    5   29 1   
    13    6    7 1   
    14    6   30 1   
    15    6   31 1   
    16    7    8 1   
    17    7   22 1   
    18    7   32 1   
    19    8    9 1   
    20    8   19 1   
    21    8   33 1   
    22    9   10 1   
    23    9   34 1   
    24    9   35 1   
    25   10   11 1   
    26   10   36 1   
    27   10   37 1   
    28   11   12 1   
    29   11   17 1   
    30   11   38 1   
    31   12   13 1   
    32   12   39 1   
    33   12   40 1   
    34   13   14 2   
    35   13   15 1   
    36   15   16 1   
    37   15   41 1   
    38   15   42 1   
    39   16   17 1   
    40   16   43 1   
    41   16   44 1   
    42   17   18 1   
    43   17   19 1   
    44   18   45 1   
    45   18   46 1   
    46   18   47 1   
    47   19   20 1   
    48   19   48 1   
    49   20   21 1   
    50   20   49 1   
    51   20   50 1   
    52   21   22 1   
    53   21   51 1   
    54   21   52 1   
    55   22   23 1   
    56   23   53 1   
    57   23   54 1   
    58   23   55 1   
@<TRIPOS>SUBSTRUCTURE
     1 CI2         1 TEMP              0 ****  ****    0 ROOT
