@<TRIPOS>MOLECULE
molecule
   52    54     1     0     0
SMALL
bcc


@<TRIPOS>ATOM
      1 Cl           0.0000     0.0000     0.0000 cl         1 CI3      -0.147400
      2 CZB          1.7360     0.0000     0.0000 ca         1 CI3       0.020400
      3 CEA          2.4280     0.0000     1.1970 ca         1 CI3      -0.131000
      4 CDA          3.8110    -0.0010     1.1960 ca         1 CI3      -0.110500
      5 CEB          2.4270    -0.0070    -1.1990 ca         1 CI3      -0.131000
      6 CDB          3.8090    -0.0070    -1.1980 ca         1 CI3      -0.110500
      7 CGA          4.5000    -0.0010    -0.0010 ca         1 CI3      -0.066300
      8 CO           6.0080    -0.0000    -0.0020 c3         1 CI3      -0.010100
      9 CF           6.5180    -1.4410    -0.0500 c3         1 CI3      -0.130000
     10 CH           6.0450    -2.1930     1.1970 c3         1 CI3       0.171800
     11 CB           5.9830    -2.1230    -1.2820 c          1 CI3       0.571300
     12 O13          5.2150    -3.0570    -1.1740 o          1 CI3      -0.639100
     13 CM           6.3780    -1.6770    -2.5660 ce         1 CI3      -0.590200
     14 CA           5.9820    -2.3550    -3.6720 cf         1 CI3       0.306900
     15 O14          5.2110    -3.4590    -3.5470 oh         1 CI3      -0.478100
     16 CE           6.3940    -1.8870    -5.0160 c          1 CI3       0.825800
     17 CG           8.0490    -1.4400    -0.0890 c3         1 CI3      -0.074400
     18 OAO          7.0870    -0.8960    -5.1270 o          1 CI3      -0.774300
     19 OAN          6.0010    -2.5600    -6.1140 o          1 CI3      -0.774300
     20 CK           8.5850    -0.7980     1.1930 c3         1 CI3      -0.079400
     21 CI           8.0530    -1.5680     2.4040 c3         1 CI3       0.155800
     22 NJ           6.5830    -1.5390     2.3970 n3         1 CI3      -0.727600
     23 CP           6.0380    -2.1500     3.6170 c3         1 CI3       0.206100
     24 CGB          6.4070    -1.3050     4.8100 ca         1 CI3      -0.070300
     25 CD1          5.5690    -0.2870     5.2210 ca         1 CI3      -0.117500
     26 CE1          5.9070     0.4890     6.3150 ca         1 CI3      -0.133000
     27 CZ           7.0850     0.2460     6.9960 ca         1 CI3      -0.136000
     28 CE2          7.9240    -0.7730     6.5840 ca         1 CI3      -0.133000
     29 CD2          7.5840    -1.5510     5.4940 ca         1 CI3      -0.117500
     30 HEB          1.8850    -0.0120    -2.1370 ha         1 CI3       0.133000
     31 HEA          1.8870     0.0000     2.1360 ha         1 CI3       0.133000
     32 HDB          4.3510    -0.0100    -2.1360 ha         1 CI3       0.158000
     33 HDA          4.3530     0.0020     2.1340 ha         1 CI3       0.158000
     34 HO1C         6.3680     0.5400    -0.8700 hc         1 CI3       0.068700
     35 HO2C         6.3690     0.4810     0.8980 hc         1 CI3       0.068700
     36 HG1C         8.4080    -2.4600    -0.1600 hc         1 CI3       0.057700
     37 HG2C         8.3880    -0.8710    -0.9470 hc         1 CI3       0.057700
     38 HH1C         6.3980    -3.2160     1.1560 h1         1 CI3       0.048700
     39 HH2C         4.9620    -2.1800     1.2350 h1         1 CI3       0.048700
     40 HM           6.8340    -2.5070    -2.0410 ha         1 CI3       0.194000
     41 H14          5.3870    -4.0470    -4.2620 ho         1 CI3       0.438000
     42 HK1C         8.2530     0.2320     1.2470 hc         1 CI3       0.045700
     43 HK2C         9.6670    -0.8350     1.1900 hc         1 CI3       0.045700
     44 HI1C         8.4170    -1.1050     3.3130 h1         1 CI3       0.028200
     45 HI2C         8.3930    -2.5950     2.3550 h1         1 CI3       0.028200
     46 HP1C         4.9600    -2.2140     3.5390 h1         1 CI3       0.039200
     47 HP2C         6.4510    -3.1450     3.7380 h1         1 CI3       0.039200
     48 HD1          4.6460    -0.0970     4.6870 ha         1 CI3       0.132500
     49 HD2          8.2410    -2.3490     5.1710 ha         1 CI3       0.132500
     50 HE1          5.2490     1.2870     6.6370 ha         1 CI3       0.123500
     51 HZ           7.3510     0.8550     7.8520 ha         1 CI3       0.121000
     52 HE2          8.8470    -0.9650     7.1190 ha         1 CI3       0.123500
@<TRIPOS>BOND
     1     1     2 1
     2     2     5 ar
     3     2     3 ar
     4     5     6 ar
     5     6     7 ar
     6     3     4 ar
     7     4     7 ar
     8     7     8 1
     9     8     9 1
    10     9    11 1
    11     9    17 1
    12     9    10 1
    13    11    13 1
    14    11    12 2
    15    13    14 2
    16    14    16 1
    17    14    15 1
    18    16    18 1
    19    16    19 1
    20    17    20 1
    21    20    21 1
    22    21    22 1
    23    22    10 1
    24    22    23 1
    25    23    24 1
    26    24    25 ar
    27    24    29 ar
    28    25    26 ar
    29    26    27 ar
    30    27    28 ar
    31    28    29 ar
    32     5    30 1
    33     3    31 1
    34     6    32 1
    35     4    33 1
    36     8    34 1
    37     8    35 1
    38    17    36 1
    39    17    37 1
    40    10    38 1
    41    10    39 1
    42    13    40 1
    43    15    41 1
    44    20    42 1
    45    20    43 1
    46    21    44 1
    47    21    45 1
    48    23    46 1
    49    23    47 1
    50    25    48 1
    51    29    49 1
    52    26    50 1
    53    27    51 1
    54    28    52 1
@<TRIPOS>SUBSTRUCTURE
     1 CI3         1 TEMP              0 ****  ****    0 ROOT
