@<TRIPOS>MOLECULE
CI3
   52    54     1     0     0
SMALL
bcc


@<TRIPOS>ATOM
      1 Cl           0.0000     0.0000     0.0000 cl         1 CI3      -0.065400
      2 CZB          1.7360     0.0000     0.0000 ca         1 CI3      -0.034600
      3 CEA          2.4280     0.0000     1.1970 ca         1 CI3      -0.103000
      4 CDA          3.8110    -0.0010     1.1960 ca         1 CI3      -0.088500
      5 CEB          2.4270    -0.0070    -1.1990 ca         1 CI3      -0.103000
      6 CDB          3.8090    -0.0070    -1.1980 ca         1 CI3      -0.088500
      7 CGA          4.5000    -0.0010    -0.0010 ca         1 CI3      -0.074300
      8 CO           6.0080    -0.0000    -0.0020 c3         1 CI3       0.030900
      9 CF           6.5180    -1.4410    -0.0500 c3         1 CI3      -0.146000
     10 CH           6.0450    -2.1930     1.1970 c3         1 CI3       0.149800
     11 CB           5.9830    -2.1230    -1.2820 c          1 CI3       0.628300
     12 O13          5.2150    -3.0570    -1.1740 o          1 CI3      -0.592100
     13 CM           6.3780    -1.6770    -2.5660 ce         1 CI3      -0.405200
     14 CA           5.9820    -2.3550    -3.6720 cf         1 CI3       0.185900
     15 O14          5.2110    -3.4590    -3.5470 oh         1 CI3      -0.475100
     16 CE           6.3940    -1.8870    -5.0160 c          1 CI3       0.930800
     17 CG           8.0490    -1.4400    -0.0890 c3         1 CI3      -0.018400
     18 OAO          7.0870    -0.8960    -5.1270 o          1 CI3      -0.864800
     19 OAN          6.0010    -2.5600    -6.1140 o          1 CI3      -0.864800
     20 CK           8.5850    -0.7980     1.1930 c3         1 CI3      -0.032400
     21 CI           8.0530    -1.5680     2.4040 c3         1 CI3       0.135800
     22 NJ           6.5830    -1.5390     2.3970 n3         1 CI3      -0.538600
     23 CP           6.0380    -2.1500     3.6170 c3         1 CI3       0.206100
     24 CGB          6.4070    -1.3050     4.8100 ca         1 CI3      -0.079300
     25 CD1          5.5690    -0.2870     5.2210 ca         1 CI3      -0.092000
     26 CE1          5.9070     0.4890     6.3150 ca         1 CI3      -0.105000
     27 CZ           7.0850     0.2460     6.9960 ca         1 CI3      -0.110000
     28 CE2          7.9240    -0.7730     6.5840 ca         1 CI3      -0.105000
     29 CD2          7.5840    -1.5510     5.4940 ca         1 CI3      -0.092000
     30 HEB          1.8850    -0.0120    -2.1370 ha         1 CI3       0.109500
     31 HEA          1.8870     0.0000     2.1360 ha         1 CI3       0.109500
     32 HDB          4.3510    -0.0100    -2.1360 ha         1 CI3       0.128000
     33 HDA          4.3530     0.0020     2.1340 ha         1 CI3       0.128000
     34 HO1C         6.3680     0.5400    -0.8700 hc         1 CI3       0.035200
     35 HO2C         6.3690     0.4810     0.8990 hc         1 CI3       0.035200
     36 HG1C         8.3880    -0.8710    -0.9470 hc         1 CI3       0.027200
     37 HG2C         8.4080    -2.4600    -0.1600 hc         1 CI3       0.027200
     38 HH1C         6.3980    -3.2160     1.1560 h1         1 CI3       0.029700
     39 HH2C         4.9620    -2.1800     1.2350 h1         1 CI3       0.029700
     40 HM           7.0150    -0.8060    -2.6640 ha         1 CI3       0.148000
     41 H14          5.6390    -4.1900    -3.9610 ho         1 CI3       0.412000
     42 HK1C         8.2530     0.2320     1.2470 hc         1 CI3       0.018200
     43 HK2C         9.6670    -0.8350     1.1900 hc         1 CI3       0.018200
     44 HI1C         8.3930    -2.5950     2.3550 h1         1 CI3       0.009700
     45 HI2C         8.4180    -1.1050     3.3130 h1         1 CI3       0.009700
     46 HP1C         6.4510    -3.1450     3.7380 h1         1 CI3       0.013200
     47 HP2C         4.9600    -2.2140     3.5390 h1         1 CI3       0.013200
     48 HD1          4.6460    -0.0970     4.6870 ha         1 CI3       0.108500
     49 HD2          8.2410    -2.3490     5.1710 ha         1 CI3       0.108500
     50 HE1          5.2490     1.2870     6.6370 ha         1 CI3       0.098000
     51 HZ           7.3510     0.8550     7.8520 ha         1 CI3       0.096000
     52 HE2          8.8470    -0.9650     7.1190 ha         1 CI3       0.098000
@<TRIPOS>BOND
     1     1     2 1   
     2     2     3 ar  
     3     2     5 ar  
     4     3     4 ar  
     5     3    31 1   
     6     4     7 ar  
     7     4    33 1   
     8     5     6 ar  
     9     5    30 1   
    10     6     7 ar  
    11     6    32 1   
    12     7     8 1   
    13     8     9 1   
    14     8    34 1   
    15     8    35 1   
    16     9    10 1   
    17     9    11 1   
    18     9    17 1   
    19    10    22 1   
    20    10    38 1   
    21    10    39 1   
    22    11    12 2   
    23    11    13 1   
    24    13    14 2   
    25    13    40 1   
    26    14    15 1   
    27    14    16 1   
    28    15    41 1   
    29    16    18 1   
    30    16    19 1   
    31    17    20 1   
    32    17    36 1   
    33    17    37 1   
    34    20    21 1   
    35    20    42 1   
    36    20    43 1   
    37    21    22 1   
    38    21    44 1   
    39    21    45 1   
    40    22    23 1   
    41    23    24 1   
    42    23    46 1   
    43    23    47 1   
    44    24    25 ar  
    45    24    29 ar  
    46    25    26 ar  
    47    25    48 1   
    48    26    27 ar  
    49    26    50 1   
    50    27    28 ar  
    51    27    51 1   
    52    28    29 ar  
    53    28    52 1   
    54    29    49 1   
@<TRIPOS>SUBSTRUCTURE
     1 CI3         1 TEMP              0 ****  ****    0 ROOT
