@<TRIPOS>MOLECULE
CI4
   32    34     1     0     0
SMALL
bcc


@<TRIPOS>ATOM
      1 Cl           0.0000     0.0000     0.0000 cl         1 CI4       0.012600
      2 OAC          5.0810     6.4670    -4.5980 oh         1 CI4      -0.491100
      3 OAD          3.8990     3.9840    -4.7070 oh         1 CI4      -0.477100
      4 FAE          2.3850     0.0110    -1.7360 f          1 CI4      -0.103900
      5 CAG          6.3360     5.8010    -2.6940 ca         1 CI4      -0.107000
      6 CAH          3.9970     0.0000     0.0000 ca         1 CI4      -0.160300
      7 CAI          4.2970     0.0000     1.3500 ca         1 CI4      -0.067000
      8 CAJ          6.6700     4.8400    -1.7530 ca         1 CI4      -0.082000
      9 CAK          1.9580    -0.0030     1.8700 ca         1 CI4      -0.068000
     10 CAM          5.4070     5.5170    -3.6820 ca         1 CI4       0.070100
     11 CAN          2.6780     0.0050    -0.4170 ca         1 CI4       0.149900
     12 CAO          4.8090     4.2630    -3.7380 ca         1 CI4       0.187100
     13 CAP          1.6570     0.0020     0.5200 ca         1 CI4      -0.080600
     14 CAQ          3.2770    -0.0020     2.2840 ca         1 CI4      -0.110000
     15 CAR          6.2210     2.3610    -0.9440 c3         1 CI4       0.118300
     16 CAS          4.6960     1.9030    -2.5850 c          1 CI4       0.654100
     17 CAT          6.0820     3.5980    -1.7950 ca         1 CI4      -0.097300
     18 CAU          5.1500     3.2890    -2.7920 ca         1 CI4      -0.188600
     19 NAV          5.3110     1.3640    -1.5190 n          1 CI4      -0.170800
     20 HA0          6.0230    -0.3500    -0.5550 h1         1 CI4       0.036700
     21 HA0A         4.8460    -0.6500    -1.8410 h1         1 CI4       0.036700
     22 HOAC         4.5170     7.1090    -4.1990 ho         1 CI4       0.408000
     23 HOAD         4.3480     3.7520    -5.5030 ho         1 CI4       0.414000
     24 HAG          6.8040     6.7770    -2.6570 ha         1 CI4       0.115000
     25 HAI          5.3300     0.0010     1.6750 ha         1 CI4       0.107000
     26 HAJ          7.3970     5.0680    -0.9830 ha         1 CI4       0.107000
     27 HAK          1.1600    -0.0050     2.6020 ha         1 CI4       0.117000
     28 HAQ          3.5120    -0.0040     3.3420 ha         1 CI4       0.110000
     29 HAR          5.9350     2.5790     0.0780 h1         1 CI4       0.023700
     30 HARA         7.2410     1.9970    -0.9820 h1         1 CI4       0.023700
     31 CA0          5.1090     0.0030    -1.0180 c3         1 CI4       0.151300
     32 OAB          3.8830     1.3280    -3.2840 o          1 CI4      -0.639500
@<TRIPOS>BOND
     1     1    13 1   
     2     2    10 1   
     3     2    22 1   
     4     3    12 1   
     5     3    23 1   
     6     4    11 1   
     7     5     8 ar  
     8     5    10 ar  
     9     5    24 1   
    10     6     7 ar  
    11     6    11 ar  
    12     6    31 1   
    13     7    14 ar  
    14     7    25 1   
    15     8    17 ar  
    16     8    26 1   
    17     9    13 ar  
    18     9    14 ar  
    19     9    27 1   
    20    10    12 ar  
    21    11    13 ar  
    22    12    18 ar  
    23    14    28 1   
    24    15    17 1   
    25    15    19 1   
    26    15    29 1   
    27    15    30 1   
    28    16    18 1   
    29    16    19 1   
    30    16    32 2   
    31    17    18 ar  
    32    19    31 1   
    33    20    31 1   
    34    21    31 1   
@<TRIPOS>SUBSTRUCTURE
     1 CI4         1 TEMP              0 ****  ****    0 ROOT
