@<TRIPOS>MOLECULE
molecule
   95    96     1     0     0
SMALL
bcc


@<TRIPOS>ATOM
      1 OAA          0.0000     0.0000     0.0000 o          1 CI9      -0.887800
      2 CBN          1.3430     0.0000     0.0000 c          1 CI9       0.891600
      3 OAG          1.9470     0.0000     1.0460 o          1 CI9      -0.887800
      4 CAZ          2.0960    -0.0010    -1.3060 c3         1 CI9      -0.183400
      5 CBB          3.6000    -0.0010    -1.0260 c3         1 CI9      -0.059400
      6 CBW          4.3640    -0.0020    -2.3510 c3         1 CI9       0.023700
      7 CBP          5.8410     0.1220    -2.0790 c          1 CI9       0.894600
      8 OAI          6.3160     1.1970    -1.4310 o          1 CI9      -0.879300
      9 OAC          6.5990    -0.7460    -2.4430 o          1 CI9      -0.879300
     10 NBI          4.1040    -1.2530    -3.0650 ns         1 CI9      -0.566900
     11 CBQ          4.2230    -1.3020    -4.4070 c          1 CI9       0.800100
     12 OAD          4.5480    -0.3070    -5.0240 o          1 CI9      -0.682100
     13 N            3.9830    -2.4540    -5.0640 ns         1 CI9      -0.595900
     14 CA           4.1130    -2.5070    -6.5220 c3         1 CI9       0.034700
     15 C            2.8280    -2.0450    -7.1580 c          1 CI9       0.884600
     16 OXT          1.8990    -1.7050    -6.4650 o          1 CI9      -0.854300
     17 O            2.7160    -2.0080    -8.4950 o          1 CI9      -0.854300
     18 CB           4.4090    -3.9450    -6.9550 c3         1 CI9      -0.072400
     19 CAP          5.7740    -4.3710    -6.4110 c3         1 CI9      -0.087400
     20 CAQ          6.0690    -5.8080    -6.8450 c3         1 CI9      -0.101400
     21 CBC          7.4340    -6.2350    -6.3010 c3         1 CI9       0.043300
     22 NBX          7.7160    -7.6110    -6.7160 na         1 CI9       0.146400
     23 CAO          8.8150    -8.0270    -7.3880 cc         1 CI9      -0.263600
     24 NBF          6.9650    -8.6330    -6.5000 nc         1 CI9      -0.190800
     25 NBE          7.5030    -9.6920    -6.9950 nd         1 CI9      -0.392000
     26 CBR          8.6680    -9.3610    -7.5640 cd         1 CI9       0.241600
     27 CBD          9.6290   -10.2900    -8.2600 c3         1 CI9       0.135100
     28 OBM         10.7560    -9.5480    -8.7260 os         1 CI9      -0.419600
     29 CAY         11.7330   -10.3390    -9.4040 c3         1 CI9       0.147400
     30 CAX         12.8900    -9.4450    -9.8570 c3         1 CI9       0.140400
     31 OBL         13.5610    -8.9170    -8.7110 os         1 CI9      -0.404600
     32 CAW         14.6630    -8.0640    -9.0250 c3         1 CI9       0.142400
     33 CAV         15.3020    -7.5600    -7.7290 c3         1 CI9       0.140400
     34 OBK         15.8680    -8.6610    -7.0160 os         1 CI9      -0.413600
     35 CAU         16.4940    -8.2970    -5.7850 c3         1 CI9       0.143400
     36 CAT         17.0600    -9.5490    -5.1120 c3         1 CI9       0.139400
     37 OBJ         18.1060   -10.0930    -5.9200 os         1 CI9      -0.418600
     38 CAS         18.7070   -11.2710    -5.3780 c3         1 CI9       0.123400
     39 CAR         19.8060   -11.7630    -6.3220 c3         1 CI9       0.239800
     40 NBG         20.8810   -10.7700    -6.3790 nu         1 CI9      -0.809600
     41 CBT         22.0080   -11.0000    -7.1840 ca         1 CI9       0.223600
     42 CAM         22.1020   -12.1670    -7.9260 ca         1 CI9      -0.186000
     43 CAL         23.2120   -12.3950    -8.7200 ca         1 CI9      -0.120000
     44 CBS         24.2330   -11.4560    -8.7760 ca         1 CI9       0.194600
     45 NBY         25.3550   -11.6900    -9.5800 nh         1 CI9      -0.378000
     46 OAJ         25.4460   -12.8830   -10.3370 oh         1 CI9      -0.329300
     47 OAE         26.3960   -10.7330    -9.6370 oh         1 CI9      -0.329300
     48 CAN         24.1430   -10.2860    -8.0340 ca         1 CI9      -0.113000
     49 CBU         23.0290   -10.0530    -7.2430 ca         1 CI9      -0.001400
     50 NBZ         22.9330    -8.8720    -6.4970 nh         1 CI9      -0.095000
     51 OAK         23.5230    -9.0390    -5.1700 oh         1 CI9      -0.451800
     52 OAF         23.5520    -7.7510    -7.2080 oh         1 CI9      -0.451800
     53 HAZ1         1.8340     0.8840    -1.8740 hc         1 CI9       0.033700
     54 HAZ2         1.8340    -0.8850    -1.8740 hc         1 CI9       0.033700
     55 HBB1         3.8620     0.8840    -0.4580 hc         1 CI9       0.047700
     56 HBB2         3.8610    -0.8860    -0.4570 hc         1 CI9       0.047700
     57 HBW          4.0370     0.8350    -2.9570 h1         1 CI9       0.069700
     58 HBI          3.8500    -2.0770    -2.5550 hn         1 CI9       0.284500
     59 H            3.6830    -3.2650    -4.5590 hn         1 CI9       0.278500
     60 HA           4.9240    -1.8610    -6.8360 h1         1 CI9       0.072700
     61 HB1C         3.6430    -4.6040    -6.5660 hc         1 CI9       0.042200
     62 HB2C         4.4180    -4.0010    -8.0370 hc         1 CI9       0.042200
     63 HAP1         5.7650    -4.3150    -5.3290 hc         1 CI9       0.052200
     64 HAP2         6.5400    -3.7120    -6.8010 hc         1 CI9       0.052200
     65 HAQ1         5.3030    -6.4680    -6.4550 hc         1 CI9       0.052200
     66 HAQ2         6.0780    -5.8650    -7.9260 hc         1 CI9       0.052200
     67 HBC1         7.4250    -6.1790    -5.2190 h1         1 CI9       0.075200
     68 HBC2         8.2000    -5.5760    -6.6910 h1         1 CI9       0.075200
     69 HAO          9.6450    -7.4140    -7.7200 h4         1 CI9       0.190000
     70 HBD1         9.9610   -11.0530    -7.5650 h1         1 CI9       0.031200
     71 HBD2         9.1320   -10.7590    -9.1010 h1         1 CI9       0.031200
     72 HAY1        12.1080   -11.1030    -8.7340 h1         1 CI9       0.028200
     73 HAY2        11.2800   -10.8090   -10.2690 h1         1 CI9       0.028200
     74 HAX1        13.5870   -10.0280   -10.4460 h1         1 CI9       0.028700
     75 HAX2        12.5030    -8.6300   -10.4560 h1         1 CI9       0.028700
     76 HAW1        15.3970    -8.6190    -9.5970 h1         1 CI9       0.030200
     77 HAW2        14.3130    -7.2210    -9.6070 h1         1 CI9       0.030200
     78 HAV1        14.5470    -7.0820    -7.1160 h1         1 CI9       0.037200
     79 HAV2        16.0810    -6.8450    -7.9650 h1         1 CI9       0.037200
     80 HAU1        17.2970    -7.5980    -5.9810 h1         1 CI9       0.035200
     81 HAU2        15.7640    -7.8350    -5.1320 h1         1 CI9       0.035200
     82 HAT1        16.2730   -10.2850    -4.9960 h1         1 CI9       0.034700
     83 HAT2        17.4560    -9.2880    -4.1380 h1         1 CI9       0.034700
     84 HAS1        17.9540   -12.0420    -5.2670 h1         1 CI9       0.030700
     85 HAS2        19.1370   -11.0440    -4.4100 h1         1 CI9       0.030700
     86 HAR1        19.3930   -11.9050    -7.3140 h1         1 CI9       0.045700
     87 HAR2        20.2010   -12.7030    -5.9570 h1         1 CI9       0.045700
     88 HBG         20.8220    -9.9360    -5.8290 hn         1 CI9       0.458800
     89 HAM         21.3060   -12.9000    -7.8850 ha         1 CI9       0.141000
     90 HAL         23.2830   -13.3070    -9.3000 ha         1 CI9       0.143000
     91 HAN         24.9390    -9.5520    -8.0800 ha         1 CI9       0.163000
     92 HAE         27.0720   -11.0380   -10.2200 ho         1 CI9       0.401000
     93 HAJ         26.3390   -13.0140   -10.6110 ho         1 CI9       0.401000
     94 HAK         23.3470    -8.2730    -4.6490 ho         1 CI9       0.408000
     95 HAF         23.2880    -6.9400    -6.8070 ho         1 CI9       0.408000
@<TRIPOS>BOND
     1     1     2 1
     2     2     3 1
     3     2     4 1
     4     4     5 1
     5     5     6 1
     6     6     7 1
     7     6    10 1
     8     7     8 1
     9     7     9 1
    10    10    11 1
    11    11    12 2
    12    11    13 1
    13    13    14 1
    14    14    15 1
    15    14    18 1
    16    15    17 1
    17    15    16 1
    18    18    19 1
    19    19    20 1
    20    20    21 1
    21    21    22 1
    22    22    23 1
    23    22    24 1
    24    23    26 2
    25    24    25 2
    26    25    26 1
    27    26    27 1
    28    27    28 1
    29    28    29 1
    30    29    30 1
    31    30    31 1
    32    31    32 1
    33    32    33 1
    34    33    34 1
    35    34    35 1
    36    35    36 1
    37    36    37 1
    38    37    38 1
    39    38    39 1
    40    39    40 1
    41    40    41 1
    42    41    42 ar
    43    41    49 ar
    44    42    43 ar
    45    43    44 ar
    46    44    45 1
    47    44    48 ar
    48    45    46 1
    49    45    47 1
    50    48    49 ar
    51    49    50 1
    52    50    51 1
    53    50    52 1
    54     4    53 1
    55     4    54 1
    56     5    55 1
    57     5    56 1
    58     6    57 1
    59    10    58 1
    60    13    59 1
    61    14    60 1
    62    18    61 1
    63    18    62 1
    64    19    63 1
    65    19    64 1
    66    20    65 1
    67    20    66 1
    68    21    67 1
    69    21    68 1
    70    23    69 1
    71    27    70 1
    72    27    71 1
    73    29    72 1
    74    29    73 1
    75    30    74 1
    76    30    75 1
    77    32    76 1
    78    32    77 1
    79    33    78 1
    80    33    79 1
    81    35    80 1
    82    35    81 1
    83    36    82 1
    84    36    83 1
    85    38    84 1
    86    38    85 1
    87    39    86 1
    88    39    87 1
    89    40    88 1
    90    42    89 1
    91    43    90 1
    92    48    91 1
    93    47    92 1
    94    46    93 1
    95    51    94 1
    96    52    95 1
@<TRIPOS>SUBSTRUCTURE
     1 CI9         1 TEMP              0 ****  ****    0 ROOT
