@<TRIPOS>MOLECULE
CI9
   95    96     1     0     0
SMALL
bcc


@<TRIPOS>ATOM
      1 OAA          0.0000     0.0000     0.0000 o          1 CI9      -0.934800
      2 CBN          1.3430     0.0000     0.0000 c          1 CI9       0.986600
      3 OAG          1.9470     0.0000     1.0460 o          1 CI9      -0.934800
      4 CAZ          2.0960    -0.0010    -1.3060 c3         1 CI9      -0.142400
      5 CBB          3.6000    -0.0010    -1.0260 c3         1 CI9      -0.012400
      6 CBW          4.3640    -0.0020    -2.3510 c3         1 CI9      -0.084300
      7 CBP          5.8410     0.1220    -2.0790 c          1 CI9       0.991600
      8 OAI          6.3160     1.1970    -1.4310 o          1 CI9      -0.929300
      9 OAC          6.5990    -0.7460    -2.4430 o          1 CI9      -0.929300
     10 NBI          4.1040    -1.2530    -3.0650 ns         1 CI9      -0.165900
     11 CBQ          4.2230    -1.3020    -4.4070 c          1 CI9       0.596100
     12 OAD          4.5480    -0.3070    -5.0240 o          1 CI9      -0.729100
     13 N            3.9830    -2.4540    -5.0640 ns         1 CI9      -0.212900
     14 CA           4.1130    -2.5070    -6.5220 c3         1 CI9      -0.070300
     15 C            2.8280    -2.0450    -7.1580 c          1 CI9       0.975600
     16 OXT          1.8990    -1.7050    -6.4650 o          1 CI9      -0.904800
     17 O            2.7160    -2.0080    -8.4950 o          1 CI9      -0.904800
     18 CB           4.4090    -3.9450    -6.9550 c3         1 CI9      -0.021400
     19 CAP          5.7740    -4.3710    -6.4110 c3         1 CI9      -0.039400
     20 CAQ          6.0690    -5.8080    -6.8450 c3         1 CI9      -0.044400
     21 CBC          7.4340    -6.2350    -6.3010 c3         1 CI9      -0.049700
     22 NBX          7.7160    -7.6110    -6.7160 na         1 CI9       0.621400
     23 CAO          8.8150    -8.0270    -7.3880 cc         1 CI9      -0.433600
     24 NBF          6.9650    -8.6330    -6.5000 nc         1 CI9      -0.360800
     25 NBE          7.5030    -9.6920    -6.9950 nd         1 CI9      -0.348000
     26 CBR          8.6680    -9.3610    -7.5640 cd         1 CI9       0.228600
     27 CBD          9.6290   -10.2900    -8.2600 c3         1 CI9       0.222100
     28 OBM         10.7560    -9.5480    -8.7260 os         1 CI9      -0.405600
     29 CAY         11.7330   -10.3390    -9.4040 c3         1 CI9       0.212400
     30 CAX         12.8900    -9.4450    -9.8570 c3         1 CI9       0.206400
     31 OBL         13.5610    -8.9170    -8.7110 os         1 CI9      -0.392600
     32 CAW         14.6630    -8.0640    -9.0250 c3         1 CI9       0.208400
     33 CAV         15.3020    -7.5600    -7.7290 c3         1 CI9       0.207400
     34 OBK         15.8680    -8.6610    -7.0160 os         1 CI9      -0.400600
     35 CAU         16.4940    -8.2970    -5.7850 c3         1 CI9       0.209400
     36 CAT         17.0600    -9.5490    -5.1120 c3         1 CI9       0.208400
     37 OBJ         18.1060   -10.0930    -5.9200 os         1 CI9      -0.406600
     38 CAS         18.7070   -11.2710    -5.3780 c3         1 CI9       0.202400
     39 CAR         19.8060   -11.7630    -6.3220 c3         1 CI9       0.160800
     40 NBG         20.8810   -10.7700    -6.3790 nu         1 CI9      -0.414600
     41 CBT         22.0080   -11.0000    -7.1840 ca         1 CI9       0.076600
     42 CAM         22.1020   -12.1670    -7.9260 ca         1 CI9      -0.169000
     43 CAL         23.2120   -12.3950    -8.7200 ca         1 CI9      -0.095000
     44 CBS         24.2330   -11.4560    -8.7760 ca         1 CI9       0.025600
     45 NBY         25.3550   -11.6900    -9.5800 nh         1 CI9      -0.002000
     46 OAJ         25.4460   -12.8830   -10.3370 oh         1 CI9      -0.417800
     47 OAE         26.3960   -10.7330    -9.6370 oh         1 CI9      -0.417800
     48 CAN         24.1430   -10.2860    -8.0340 ca         1 CI9      -0.088000
     49 CBU         23.0290   -10.0530    -7.2430 ca         1 CI9      -0.056400
     50 NBZ         22.9330    -8.8720    -6.4970 nh         1 CI9       0.040000
     51 OAK         23.5230    -9.0390    -5.1700 oh         1 CI9      -0.466800
     52 OAF         23.5520    -7.7510    -7.2080 oh         1 CI9      -0.466800
     53 HAZ1         1.8340     0.8840    -1.8740 hc         1 CI9       0.010700
     54 HAZ2         1.8340    -0.8850    -1.8740 hc         1 CI9       0.010700
     55 HBB1         3.8620     0.8840    -0.4580 hc         1 CI9       0.025200
     56 HBB2         3.8610    -0.8860    -0.4570 hc         1 CI9       0.025200
     57 HBW          4.0370     0.8350    -2.9570 h1         1 CI9       0.053700
     58 HBI          3.8500    -2.0770    -2.5550 hn         1 CI9       0.143500
     59 H            3.6830    -3.2650    -4.5590 hn         1 CI9       0.140500
     60 HA           4.9240    -1.8610    -6.8360 h1         1 CI9       0.054700
     61 HB1C         3.6430    -4.6040    -6.5660 hc         1 CI9       0.017700
     62 HB2C         4.4180    -4.0010    -8.0370 hc         1 CI9       0.017700
     63 HAP1         5.7650    -4.3150    -5.3290 hc         1 CI9       0.026200
     64 HAP2         6.5400    -3.7120    -6.8010 hc         1 CI9       0.026200
     65 HAQ1         5.3030    -6.4680    -6.4550 hc         1 CI9       0.024700
     66 HAQ2         6.0780    -5.8650    -7.9260 hc         1 CI9       0.024700
     67 HBC1         7.4250    -6.1790    -5.2190 h1         1 CI9       0.046700
     68 HBC2         8.2000    -5.5760    -6.6910 h1         1 CI9       0.046700
     69 HAO          9.6450    -7.4140    -7.7200 h4         1 CI9       0.168000
     70 HBD1         9.9610   -11.0530    -7.5650 h1         1 CI9      -0.008300
     71 HBD2         9.1320   -10.7590    -9.1010 h1         1 CI9      -0.008300
     72 HAY1        12.1080   -11.1030    -8.7340 h1         1 CI9      -0.008300
     73 HAY2        11.2800   -10.8090   -10.2690 h1         1 CI9      -0.008300
     74 HAX1        13.5870   -10.0280   -10.4460 h1         1 CI9      -0.007800
     75 HAX2        12.5030    -8.6300   -10.4560 h1         1 CI9      -0.007800
     76 HAW1        15.3970    -8.6190    -9.5970 h1         1 CI9      -0.006300
     77 HAW2        14.3130    -7.2210    -9.6070 h1         1 CI9      -0.006300
     78 HAV1        14.5470    -7.0820    -7.1160 h1         1 CI9      -0.000300
     79 HAV2        16.0810    -6.8450    -7.9650 h1         1 CI9      -0.000300
     80 HAU1        17.2970    -7.5980    -5.9810 h1         1 CI9      -0.001300
     81 HAU2        15.7640    -7.8350    -5.1320 h1         1 CI9      -0.001300
     82 HAT1        16.2730   -10.2850    -4.9960 h1         1 CI9      -0.002300
     83 HAT2        17.4560    -9.2880    -4.1380 h1         1 CI9      -0.002300
     84 HAS1        17.9540   -12.0420    -5.2670 h1         1 CI9      -0.005300
     85 HAS2        19.1370   -11.0440    -4.4100 h1         1 CI9      -0.005300
     86 HAR1        19.3930   -11.9050    -7.3140 h1         1 CI9       0.017700
     87 HAR2        20.2010   -12.7030    -5.9570 h1         1 CI9       0.017700
     88 HBG         20.8220    -9.9360    -5.8290 hn         1 CI9       0.310800
     89 HAM         21.3060   -12.9000    -7.8850 ha         1 CI9       0.116000
     90 HAL         23.2830   -13.3070    -9.3000 ha         1 CI9       0.112000
     91 HAN         24.9390    -9.5520    -8.0800 ha         1 CI9       0.131000
     92 HAE         27.0720   -11.0380   -10.2200 ho         1 CI9       0.392500
     93 HAJ         26.3390   -13.0140   -10.6110 ho         1 CI9       0.392500
     94 HAK         23.3470    -8.2730    -4.6490 ho         1 CI9       0.398000
     95 HAF         23.2880    -6.9400    -6.8070 ho         1 CI9       0.398000
@<TRIPOS>BOND
     1     1     2 1   
     2     2     3 1   
     3     2     4 1   
     4     4     5 1   
     5     4    53 1   
     6     4    54 1   
     7     5     6 1   
     8     5    55 1   
     9     5    56 1   
    10     6     7 1   
    11     6    10 1   
    12     6    57 1   
    13     7     8 1   
    14     7     9 1   
    15    10    11 1   
    16    10    58 1   
    17    11    12 2   
    18    11    13 1   
    19    13    14 1   
    20    13    59 1   
    21    14    15 1   
    22    14    18 1   
    23    14    60 1   
    24    15    16 1   
    25    15    17 1   
    26    18    19 1   
    27    18    61 1   
    28    18    62 1   
    29    19    20 1   
    30    19    63 1   
    31    19    64 1   
    32    20    21 1   
    33    20    65 1   
    34    20    66 1   
    35    21    22 1   
    36    21    67 1   
    37    21    68 1   
    38    22    23 1   
    39    22    24 1   
    40    23    26 2   
    41    23    69 1   
    42    24    25 2   
    43    25    26 1   
    44    26    27 1   
    45    27    28 1   
    46    27    70 1   
    47    27    71 1   
    48    28    29 1   
    49    29    30 1   
    50    29    72 1   
    51    29    73 1   
    52    30    31 1   
    53    30    74 1   
    54    30    75 1   
    55    31    32 1   
    56    32    33 1   
    57    32    76 1   
    58    32    77 1   
    59    33    34 1   
    60    33    78 1   
    61    33    79 1   
    62    34    35 1   
    63    35    36 1   
    64    35    80 1   
    65    35    81 1   
    66    36    37 1   
    67    36    82 1   
    68    36    83 1   
    69    37    38 1   
    70    38    39 1   
    71    38    84 1   
    72    38    85 1   
    73    39    40 1   
    74    39    86 1   
    75    39    87 1   
    76    40    41 1   
    77    40    88 1   
    78    41    42 ar  
    79    41    49 ar  
    80    42    43 ar  
    81    42    89 1   
    82    43    44 ar  
    83    43    90 1   
    84    44    45 1   
    85    44    48 ar  
    86    45    46 1   
    87    45    47 1   
    88    46    93 1   
    89    47    92 1   
    90    48    49 ar  
    91    48    91 1   
    92    49    50 1   
    93    50    51 1   
    94    50    52 1   
    95    51    94 1   
    96    52    95 1   
@<TRIPOS>SUBSTRUCTURE
     1 CI9         1 TEMP              0 ****  ****    0 ROOT
