@<TRIPOS>MOLECULE
CIA
   48    53     1     0     0
SMALL
bcc


@<TRIPOS>ATOM
      1 C3           0.0000     0.0000     0.0000 ca         1 CIA      -0.081000
      2 C2           1.3850     0.0000     0.0000 ca         1 CIA      -0.132000
      3 C1           2.1140     0.0000     1.1640 ca         1 CIA      -0.040000
      4 C6           1.3930    -0.0000     2.3610 ca         1 CIA      -0.091800
      5 C7           1.7980    -0.0040     3.7530 cc         1 CIA      -0.149400
      6 C8           0.6690     0.0010     4.4930 cd         1 CIA      -0.292300
      7 N9          -0.4270     0.0040     3.6720 na         1 CIA       0.399600
      8 C5          -0.0260     0.0020     2.3670 ca         1 CIA      -0.228200
      9 C4          -0.7390     0.0010     1.1710 ca         1 CIA      -0.105000
     10 C13          0.6620     0.0050     6.0050 c3         1 CIA       0.199200
     11 N12          2.0400    -0.2910     6.4520 n          1 CIA      -0.127800
     12 C17          2.2250    -1.1760     7.4350 c          1 CIA       0.609500
     13 O20          1.2490    -1.7510     7.8690 o          1 CIA      -0.666500
     14 C16          3.5520    -1.5030     8.0380 c3         1 CIA      -0.010000
     15 N15          4.6270    -0.7240     7.4470 n          1 CIA      -0.141800
     16 C31          4.4540     0.1400     6.4480 c          1 CIA       0.613500
     17 O32          5.4260     0.7390     6.0410 o          1 CIA      -0.677500
     18 C11          3.1390     0.4120     5.7920 c3         1 CIA      -0.036300
     19 C10          3.1960    -0.0140     4.3180 c3         1 CIA       0.074800
     20 C18          5.9800    -0.8950     7.9850 c3         1 CIA       0.089300
     21 C22         -0.2820    -1.0510     6.5160 ca         1 CIA      -0.066300
     22 C27         -1.2420    -0.7220     7.4560 ca         1 CIA      -0.098000
     23 C26         -2.1110    -1.6870     7.9280 ca         1 CIA      -0.077000
     24 C25         -2.0240    -2.9890     7.4600 ca         1 CIA       0.054100
     25 O30         -2.7460    -4.1080     7.7570 os         1 CIA      -0.317900
     26 C29         -1.9510    -5.2130     7.2890 c3         1 CIA       0.432200
     27 O28         -1.1750    -4.6470     6.2160 os         1 CIA      -0.317900
     28 C24         -1.0580    -3.3200     6.5130 ca         1 CIA       0.067100
     29 C23         -0.1930    -2.3460     6.0410 ca         1 CIA      -0.071000
     30 H3          -0.5230    -0.0000    -0.9490 ha         1 CIA       0.098000
     31 H2           1.9090    -0.0010    -0.9480 ha         1 CIA       0.100000
     32 H1           3.1970    -0.0000     1.1550 ha         1 CIA       0.108000
     33 HN9         -1.3790     0.0090     3.9820 hn         1 CIA       0.118700
     34 H4          -1.8220     0.0010     1.1570 ha         1 CIA       0.107000
     35 H13          0.3620     0.9810     6.3670 h1         1 CIA       0.035700
     36 H161         3.7560    -2.5560     7.8840 h1         1 CIA       0.044200
     37 H162         3.5140    -1.2990     9.1010 h1         1 CIA       0.044200
     38 H11          2.9440     1.4760     5.8370 h1         1 CIA       0.058700
     39 H101         3.6090    -1.0130     4.2450 hc         1 CIA       0.034200
     40 H102         3.8150     0.6820     3.7640 hc         1 CIA       0.034200
     41 H181         5.9630    -1.6370     8.7740 h1         1 CIA       0.015700
     42 H182         6.6440    -1.2230     7.1940 h1         1 CIA       0.015700
     43 H183         6.3310     0.0490     8.3830 h1         1 CIA       0.015700
     44 H27         -1.3130     0.2950     7.8230 ha         1 CIA       0.105000
     45 H26         -2.8620    -1.4260     8.6640 ha         1 CIA       0.109000
     46 H291        -2.5970    -5.9930     6.9030 h2         1 CIA       0.013200
     47 H292        -1.2930    -5.5540     8.0790 h2         1 CIA       0.013200
     48 H23          0.5530    -2.5990     5.2980 ha         1 CIA       0.118000
@<TRIPOS>BOND
     1     1     2 ar  
     2     1     9 ar  
     3     1    30 1   
     4     2     3 ar  
     5     2    31 1   
     6     3     4 ar  
     7     3    32 1   
     8     4     5 1   
     9     4     8 ar  
    10     5     6 2   
    11     5    19 1   
    12     6     7 1   
    13     6    10 1   
    14     7     8 1   
    15     7    33 1   
    16     8     9 ar  
    17     9    34 1   
    18    10    11 1   
    19    10    21 1   
    20    10    35 1   
    21    11    12 1   
    22    11    18 1   
    23    12    13 2   
    24    12    14 1   
    25    14    15 1   
    26    14    36 1   
    27    14    37 1   
    28    15    16 1   
    29    15    20 1   
    30    16    17 2   
    31    16    18 1   
    32    18    19 1   
    33    18    38 1   
    34    19    39 1   
    35    19    40 1   
    36    20    41 1   
    37    20    42 1   
    38    20    43 1   
    39    21    22 ar  
    40    21    29 ar  
    41    22    23 ar  
    42    22    44 1   
    43    23    24 ar  
    44    23    45 1   
    45    24    25 1   
    46    24    28 ar  
    47    25    26 1   
    48    26    27 1   
    49    26    46 1   
    50    26    47 1   
    51    27    28 1   
    52    28    29 ar  
    53    29    48 1   
@<TRIPOS>SUBSTRUCTURE
     1 CIA         1 TEMP              0 ****  ****    0 ROOT
