@<TRIPOS>MOLECULE
molecule
   64    63     1     0     0
SMALL
bcc


@<TRIPOS>ATOM
      1 N1           0.0000     0.0000     0.0000 ns         1 CIB      -0.583900
      2 CA1          1.4640     0.0000     0.0000 c3         1 CIB       0.057700
      3 C1           1.9680     0.0000     1.4200 c          1 CIB       0.644100
      4 O1           1.3130     0.5250     2.2960 o          1 CIB      -0.577100
      5 CB1          1.9740     1.2490    -0.7220 c3         1 CIB      -0.092400
      6 CG1          1.4630     1.2490    -2.1640 c3         1 CIB      -0.074700
      7 CD1          1.9720     2.4980    -2.8850 c3         1 CIB      -0.089600
      8 CD2          1.9720    -0.0010    -2.8850 c3         1 CIB      -0.089600
      9 C10         -0.6740     1.0100     0.5850 c          1 CIB       0.658100
     10 C25         -2.1800     1.0110     0.5850 c3         1 CIB      -0.169100
     11 O28         -0.0670     1.9200     1.1090 o          1 CIB      -0.569100
     12 N2           3.1450    -0.5830     1.7190 ns         1 CIB      -0.564900
     13 CA2          3.6110    -0.6270     3.1050 c3         1 CIB       0.038700
     14 C2           4.9130     0.1200     3.2220 c          1 CIB       0.654100
     15 O2           5.4050     0.6380     2.2420 o          1 CIB      -0.609100
     16 CB2          3.8180    -2.0820     3.5290 c3         1 CIB      -0.087400
     17 CG2          2.4710    -2.8070     3.5380 c3         1 CIB      -0.075700
     18 CD3          2.6890    -4.2840     3.8790 c3         1 CIB      -0.093100
     19 CD4          1.5580    -2.1720     4.5880 c3         1 CIB      -0.093100
     20 N3           5.5330     0.2130     4.4160 ns         1 CIB      -0.568900
     21 CA3          6.8000     0.9400     4.5290 c3         1 CIB      -0.002300
     22 C3           7.9460    -0.0080     4.2920 c          1 CIB       0.555900
     23 O3           7.7280    -1.1710     4.0530 o          1 CIB      -0.512100
     24 CB3          6.9190     1.5420     5.9300 c3         1 CIB      -0.089400
     25 CG3          5.7550     2.5050     6.1720 c3         1 CIB      -0.080400
     26 CE3          4.7100     4.0720     7.8130 c3         1 CIB      -0.091100
     27 C19          5.8740     3.1080     7.5720 c3         1 CIB      -0.085400
     28 HN1         -0.5000    -0.7740    -0.3920 hn         1 CIB       0.312500
     29 HA1          1.8250    -0.8850    -0.5110 h1         1 CIB       0.059700
     30 HB11         3.0570     1.2480    -0.7230 hc         1 CIB       0.075700
     31 HB12         1.6140     2.1340    -0.2110 hc         1 CIB       0.075700
     32 HG1          0.3800     1.2490    -2.1630 hc         1 CIB       0.052700
     33 HD11         1.5570     2.5310    -3.8850 hc         1 CIB       0.033700
     34 HD12         3.0530     2.4650    -2.9430 hc         1 CIB       0.033700
     35 HD13         1.6660     3.3810    -2.3370 hc         1 CIB       0.033700
     36 HD21         2.9820    -0.2190    -2.5610 hc         1 CIB       0.033700
     37 HD22         1.3280    -0.8400    -2.6520 hc         1 CIB       0.033700
     38 HD23         1.9660     0.1720    -3.9550 hc         1 CIB       0.033700
     39 H251        -2.5410     1.8550     1.1600 hc         1 CIB       0.058367
     40 H252        -2.5410     1.0860    -0.4330 hc         1 CIB       0.058367
     41 H253        -2.5420     0.0910     1.0290 hc         1 CIB       0.058367
     42 HN2          3.7060    -0.9790     0.9910 hn         1 CIB       0.323500
     43 HA2          2.8720    -0.1650     3.7490 h1         1 CIB       0.113700
     44 HB21         4.4860    -2.5710     2.8300 hc         1 CIB       0.053700
     45 HB22         4.2500    -2.1110     4.5220 hc         1 CIB       0.053700
     46 HG2          2.0100    -2.7260     2.5610 hc         1 CIB       0.053700
     47 HD31         3.0830    -4.3680     4.8850 hc         1 CIB       0.037367
     48 HD32         3.3940    -4.7160     3.1780 hc         1 CIB       0.037367
     49 HD33         1.7460    -4.8120     3.8150 hc         1 CIB       0.037367
     50 HD41         1.1710    -1.2340     4.2100 hc         1 CIB       0.037367
     51 HD42         0.7350    -2.8430     4.8040 hc         1 CIB       0.037367
     52 HD43         2.1230    -1.9900     5.4950 hc         1 CIB       0.037367
     53 HN3          5.1380    -0.2320     5.2210 hn         1 CIB       0.320500
     54 HA3          6.8290     1.7330     3.7920 h1         1 CIB       0.106700
     55 H3           8.9640     0.3620     4.2940 h4         1 CIB      -0.000800
     56 HB31         6.8900     0.7490     6.6680 hc         1 CIB       0.050700
     57 HB32         7.8560     2.0790     6.0140 hc         1 CIB       0.050700
     58 HG31         5.7840     3.2980     5.4340 hc         1 CIB       0.050700
     59 HG32         4.8180     1.9680     6.0880 hc         1 CIB       0.050700
     60 HE31         4.8210     4.5350     8.7860 hc         1 CIB       0.036033
     61 HE32         4.7100     4.8370     7.0460 hc         1 CIB       0.036033
     62 HE33         3.7760     3.5250     7.7780 hc         1 CIB       0.036033
     63 H191         5.8460     2.3160     8.3100 hc         1 CIB       0.039200
     64 H192         6.8110     3.6460     7.6560 hc         1 CIB       0.039200
@<TRIPOS>BOND
     1     1     2 1
     2     1     9 1
     3     1    28 1
     4     2     3 1
     5     2     5 1
     6     2    29 1
     7     3     4 2
     8     3    12 1
     9     5     6 1
    10     5    30 1
    11     5    31 1
    12     6     7 1
    13     6     8 1
    14     6    32 1
    15     7    33 1
    16     7    34 1
    17     7    35 1
    18     8    36 1
    19     8    37 1
    20     8    38 1
    21     9    10 1
    22     9    11 2
    23    10    39 1
    24    10    40 1
    25    10    41 1
    26    12    13 1
    27    12    42 1
    28    13    14 1
    29    13    16 1
    30    13    43 1
    31    14    15 2
    32    14    20 1
    33    16    17 1
    34    16    44 1
    35    16    45 1
    36    17    18 1
    37    17    19 1
    38    17    46 1
    39    18    47 1
    40    18    48 1
    41    18    49 1
    42    19    50 1
    43    19    51 1
    44    19    52 1
    45    20    21 1
    46    20    53 1
    47    21    22 1
    48    21    24 1
    49    21    54 1
    50    22    23 2
    51    22    55 1
    52    24    25 1
    53    24    56 1
    54    24    57 1
    55    25    27 1
    56    25    58 1
    57    25    59 1
    58    26    27 1
    59    26    60 1
    60    26    61 1
    61    26    62 1
    62    27    63 1
    63    27    64 1
@<TRIPOS>SUBSTRUCTURE
     1 CIB         1 TEMP              0 ****  ****    0 ROOT
