@<TRIPOS>MOLECULE
molecule
   39    42     1     0     0
SMALL
bcc


@<TRIPOS>ATOM
      1 C20          0.0000     0.0000     0.0000 ca         1 CID      -0.089300
      2 C18         -0.7530     0.0040    -1.3070 c3         1 CID       0.192700
      3 O16         -0.9970     1.3530    -1.7110 os         1 CID      -0.181300
      4 N11         -1.7020     1.2900    -2.9370 n2         1 CID      -0.486200
      5 C10         -2.0570     2.3870    -3.5380 ce         1 CID       0.474800
      6 C21          1.3820     0.0000     0.0000 ca         1 CID      -0.092000
      7 C23          2.0730     0.0000     1.1980 ca         1 CID       0.026400
      8 Cl26         3.8090     0.0070     1.1990 cl         1 CID      -0.083400
      9 C25          1.3800    -0.0090     2.3960 ca         1 CID       0.037400
     10 Cl27         2.2470    -0.0140     3.9000 cl         1 CID      -0.083400
     11 C24         -0.0030    -0.0140     2.3940 ca         1 CID      -0.117000
     12 C22         -0.6920    -0.0100     1.1960 ca         1 CID      -0.098000
     13 N5          -3.1500     1.1620    -5.4500 na         1 CID      -0.126900
     14 C9          -3.7920     1.6100    -6.5730 cc         1 CID       0.511900
     15 N4          -3.8230     2.9140    -6.6060 nd         1 CID      -0.651000
     16 C1          -3.2090     3.4020    -5.5190 cd         1 CID       0.452800
     17 C2          -2.7650     2.3250    -4.7660 cc         1 CID      -0.272500
     18 C3          -3.0320     4.8340    -5.1840 ca         1 CID      -0.117500
     19 C8          -3.1800     5.2680    -3.8680 ca         1 CID      -0.097500
     20 C13         -3.0090     6.6030    -3.5610 ca         1 CID      -0.124500
     21 C17         -2.7020     7.5110    -4.5600 ca         1 CID       0.036400
     22 Cl19        -2.4930     9.1900    -4.1690 cl         1 CID      -0.105400
     23 C12         -2.5530     7.0850    -5.8690 ca         1 CID      -0.124500
     24 C7          -2.7170     5.7520    -6.1850 ca         1 CID      -0.097500
     25 C11         -3.0470    -0.1990    -5.2890 cc         1 CID      -0.093300
     26 S14         -4.2440     0.0970    -7.3920 ss         1 CID      -0.191300
     27 C15         -3.5550    -1.0350    -6.1950 cd         1 CID      -0.063100
     28 H181        -0.1640    -0.4990    -2.0640 h1         1 CID       0.045700
     29 H182        -1.6970    -0.5110    -1.1810 h1         1 CID       0.045700
     30 H10         -1.8130     3.3480    -3.1020 h4         1 CID       0.025800
     31 H21          1.9230    -0.0210    -0.9380 ha         1 CID       0.154000
     32 H24         -0.5460    -0.0210     3.3310 ha         1 CID       0.152000
     33 H22         -1.7760    -0.0140     1.1940 ha         1 CID       0.144000
     34 H8          -3.4200     4.5580    -3.0860 ha         1 CID       0.148000
     35 H13         -3.1230     6.9410    -2.5390 ha         1 CID       0.148500
     36 H12         -2.3110     7.7990    -6.6460 ha         1 CID       0.148500
     37 H7          -2.6010     5.4200    -7.2100 ha         1 CID       0.148000
     38 H11         -2.5470    -0.5980    -4.4140 h4         1 CID       0.191000
     39 H15         -3.8900    -2.0480    -6.0090 h4         1 CID       0.210000
@<TRIPOS>BOND
     1     1     2 1
     2     1     6 ar
     3     1    12 ar
     4     2     3 1
     5     2    28 1
     6     2    29 1
     7     3     4 1
     8     4     5 2
     9     5    17 1
    10     5    30 1
    11     6     7 ar
    12     6    31 1
    13     7     8 1
    14     7     9 ar
    15     9    10 1
    16     9    11 ar
    17    11    12 ar
    18    11    32 1
    19    12    33 1
    20    13    14 1
    21    13    17 1
    22    13    25 1
    23    14    15 2
    24    14    26 1
    25    15    16 1
    26    16    17 2
    27    16    18 1
    28    18    19 ar
    29    18    24 ar
    30    19    20 ar
    31    19    34 1
    32    20    21 ar
    33    20    35 1
    34    21    22 1
    35    21    23 ar
    36    23    24 ar
    37    23    36 1
    38    24    37 1
    39    25    27 2
    40    25    38 1
    41    26    27 1
    42    27    39 1
@<TRIPOS>SUBSTRUCTURE
     1 CID         1 TEMP              0 ****  ****    0 ROOT
