@<TRIPOS>MOLECULE
molecule
   42    43     1     0     0
SMALL
bcc


@<TRIPOS>ATOM
      1 C1           0.0000     0.0000     0.0000 ca         1 CIE      -0.049600
      2 C2           1.3950     0.0000     0.0000 ca         1 CIE      -0.243500
      3 C3           2.0820     0.0000     1.1960 ca         1 CIE      -0.018000
      4 C4           1.3920    -0.0120     2.3940 ca         1 CIE      -0.116000
      5 C5           0.0080    -0.0190     2.4020 ca         1 CIE      -0.094000
      6 C6          -0.6910    -0.0120     1.2130 ca         1 CIE      -0.095000
      7 C7          -0.7420     0.0060    -1.2760 c          1 CIE       0.661700
      8 O7          -0.1430    -0.0970    -2.3270 o          1 CIE      -0.570000
      9 O8          -2.0840     0.1270    -1.2750 os         1 CIE      -0.428900
     10 C9          -2.8240     0.0200    -2.5200 c3         1 CIE       0.154400
     11 C10         -4.3030     0.3120    -2.2600 c3         1 CIE      -0.096100
     12 S11          2.2780     0.0160    -1.5260 sy         1 CIE       1.451900
     13 OBA          1.7520     1.1090    -2.2640 o          1 CIE      -0.611300
     14 OBB          3.6450    -0.1630    -1.1820 o          1 CIE      -0.611300
     15 N12          1.8430    -1.3450    -2.3630 ns         1 CIE      -0.642300
     16 C13          2.1480    -2.5620    -1.8730 c          1 CIE       0.786100
     17 O13          2.6540    -2.6670    -0.7740 o          1 CIE      -0.554100
     18 N14          1.8910    -3.6650    -2.6050 ns         1 CIE      -0.538400
     19 N1'          1.9350    -5.9950    -2.8180 nb         1 CIE      -0.866000
     20 C2'          2.0820    -4.9240    -2.0510 ca         1 CIE       0.868900
     21 N3'          2.4010    -5.0250    -0.7720 nb         1 CIE      -0.745000
     22 C4'          2.5920    -6.2100    -0.2090 ca         1 CIE       0.606300
     23 Cl4'         3.0100    -6.3280     1.4710 cl         1 CIE      -0.129000
     24 C5'          2.4530    -7.3530    -0.9780 ca         1 CIE      -0.422600
     25 C6'          2.1160    -7.2130    -2.3220 ca         1 CIE       0.709600
     26 O7'          1.9690    -8.3040    -3.1110 os         1 CIE      -0.401100
     27 C8'          1.6270    -7.8290    -4.4150 c3         1 CIE       0.116700
     28 H3           3.1660     0.0030     1.1970 ha         1 CIE       0.170000
     29 H4           1.9370    -0.0150     3.3300 ha         1 CIE       0.142000
     30 H5          -0.5270    -0.0290     3.3440 ha         1 CIE       0.139000
     31 H6          -1.7740    -0.0150     1.2200 ha         1 CIE       0.152000
     32 H91         -2.4350     0.7360    -3.2340 h1         1 CIE       0.050200
     33 H92         -2.7180    -0.9820    -2.9180 h1         1 CIE       0.050200
     34 H101        -4.4090     1.3130    -1.8610 hc         1 CIE       0.050033
     35 H102        -4.8560     0.2330    -3.1880 hc         1 CIE       0.050033
     36 H103        -4.6920    -0.4040    -1.5460 hc         1 CIE       0.050033
     37 H12          1.4110    -1.2610    -3.2610 hn         1 CIE       0.355500
     38 H14          1.5960    -3.5760    -3.5570 hn         1 CIE       0.342500
     39 H5'          2.6050    -8.3340    -0.5440 ha         1 CIE       0.169000
     40 H8'1         2.4180    -7.1880    -4.7850 h1         1 CIE       0.052700
     41 H8'2         1.5010    -8.6710    -5.0850 h1         1 CIE       0.052700
     42 H8'3         0.7020    -7.2670    -4.3630 h1         1 CIE       0.052700
@<TRIPOS>BOND
     1     1     2 ar
     2     1     6 ar
     3     1     7 1
     4     2     3 ar
     5     2    12 1
     6     3     4 ar
     7     3    28 1
     8     4     5 ar
     9     4    29 1
    10     5     6 ar
    11     5    30 1
    12     6    31 1
    13     7     8 2
    14     7     9 1
    15     9    10 1
    16    10    11 1
    17    10    32 1
    18    10    33 1
    19    11    34 1
    20    11    35 1
    21    11    36 1
    22    12    13 2
    23    12    14 2
    24    12    15 1
    25    15    16 1
    26    15    37 1
    27    16    17 2
    28    16    18 1
    29    18    20 1
    30    18    38 1
    31    19    20 ar
    32    19    25 ar
    33    20    21 ar
    34    21    22 ar
    35    22    23 1
    36    22    24 ar
    37    24    25 ar
    38    24    39 1
    39    25    26 1
    40    26    27 1
    41    27    40 1
    42    27    41 1
    43    27    42 1
@<TRIPOS>SUBSTRUCTURE
     1 CIE         1 TEMP              0 ****  ****    0 ROOT
