@<TRIPOS>MOLECULE
CIG
   12    12     1     0     0
SMALL
bcc


@<TRIPOS>ATOM
      1 N01          0.0000     0.0000     0.0000 nv         1 CIG      -0.648500
      2 C02          1.3900     0.0000     0.0000 ca         1 CIG       0.389900
      3 C03          2.0880     0.0000     1.2060 ca         1 CIG       0.280900
      4 N04          3.4070    -0.0000     1.2020 nb         1 CIG      -0.536000
      5 C05          4.0680    -0.0010     0.0560 ca         1 CIG       0.289900
      6 C06          3.3790    -0.0010    -1.1430 ca         1 CIG       0.285000
      7 Cl1          4.2510    -0.0020    -2.6430 cl         1 CIG      -0.071000
      8 N08          2.0560    -0.0070    -1.1480 nb         1 CIG      -0.546000
      9 H011        -0.5000     0.8670    -0.0140 hn         1 CIG       0.280800
     10 H012        -0.5000    -0.8670    -0.0140 hn         1 CIG       0.280800
     11 H03          1.5480     0.0010     2.1450 h4         1 CIG      -0.003900
     12 H05          5.1510    -0.0010     0.0570 h4         1 CIG      -0.001900
@<TRIPOS>BOND
     1     1     2 1   
     2     1     9 1   
     3     1    10 1   
     4     2     3 ar  
     5     2     8 ar  
     6     3     4 ar  
     7     3    11 1   
     8     4     5 ar  
     9     5     6 ar  
    10     5    12 1   
    11     6     7 1   
    12     6     8 ar  
@<TRIPOS>SUBSTRUCTURE
     1 CIG         1 TEMP              0 ****  ****    0 ROOT
