@<TRIPOS>MOLECULE
CIH
   35    36     1     0     0
SMALL
bcc


@<TRIPOS>ATOM
      1 ClAE         0.0000     0.0000     0.0000 cl         1 CIH      -0.012400
      2 CAS          1.7360     0.0000     0.0000 ca         1 CIH      -0.021600
      3 CAJ          2.4280     0.0000     1.1950 ca         1 CIH      -0.098000
      4 CAH          3.8110     0.0010     1.1970 ca         1 CIH      -0.087000
      5 CAI          4.5090     0.0030     0.0030 ca         1 CIH      -0.102000
      6 CAL          3.8280     0.0030    -1.1980 ca         1 CIH      -0.076000
      7 CAV          2.4350    -0.0040    -1.2070 cp         1 CIH      -0.038000
      8 CAW          1.6990    -0.0100    -2.4940 cp         1 CIH      -0.032000
      9 CAT          0.9080     1.0820    -2.8510 ca         1 CIH      -0.022600
     10 CAN          0.2240     1.0740    -4.0500 ca         1 CIH      -0.085000
     11 ClAF         0.7840     2.4500    -1.7900 cl         1 CIH      -0.009400
     12 CAM          1.7990    -1.1050    -3.3510 ca         1 CIH      -0.067000
     13 CAK          1.1150    -1.1080    -4.5470 ca         1 CIH      -0.103000
     14 CAU          0.3230    -0.0210    -4.9000 ca         1 CIH      -0.091400
     15 NAO         -0.3710    -0.0280    -6.1130 ns         1 CIH      -0.051100
     16 CAQ         -0.8510    -1.1850    -6.6100 c          1 CIH       0.586300
     17 OAC         -0.7660    -2.2080    -5.9560 o          1 CIH      -0.612100
     18 CAR         -1.4770    -1.2110    -7.9380 ce         1 CIH      -0.146900
     19 CAG         -1.5780    -0.0070    -8.7070 cg         1 CIH       0.200500
     20 NAA         -1.6770     0.9490    -9.3130 n1         1 CIH      -0.379800
     21 CAP         -1.9630    -2.3820    -8.4400 c2         1 CIH       0.223900
     22 CAB         -2.6060    -2.4090    -9.8030 c3         1 CIH       0.002100
     23 OAD         -1.8700    -3.5120    -7.7180 oh         1 CIH      -0.466100
     24 HAJ          1.8880     0.0000     2.1340 ha         1 CIH       0.115000
     25 HAH          4.3510     0.0010     2.1360 ha         1 CIH       0.105000
     26 HAI          5.5920     0.0040     0.0090 ha         1 CIH       0.106000
     27 HAL          4.3780     0.0040    -2.1320 ha         1 CIH       0.111000
     28 HAN         -0.3900     1.9220    -4.3290 ha         1 CIH       0.124000
     29 HAM          2.4160    -1.9530    -3.0770 ha         1 CIH       0.114000
     30 HAK          1.1930    -1.9590    -5.2140 ha         1 CIH       0.139000
     31 HNAO         0.0370     0.3930    -6.9240 hn         1 CIH       0.161500
     32 HAB         -1.8950    -2.0650   -10.5440 hc         1 CIH       0.029700
     33 HABA        -3.4740    -1.7610    -9.8060 hc         1 CIH       0.029700
     34 HABB        -2.9110    -3.4220   -10.0380 hc         1 CIH       0.029700
     35 HOAD        -2.7160    -3.7300    -7.3640 ho         1 CIH       0.424000
@<TRIPOS>BOND
     1     1     2 1   
     2     2     3 ar  
     3     2     7 ar  
     4     3     4 ar  
     5     3    24 1   
     6     4     5 ar  
     7     4    25 1   
     8     5     6 ar  
     9     5    26 1   
    10     6     7 ar  
    11     6    27 1   
    12     7     8 1   
    13     8     9 ar  
    14     8    12 ar  
    15     9    10 ar  
    16     9    11 1   
    17    10    14 ar  
    18    10    28 1   
    19    12    13 ar  
    20    12    29 1   
    21    13    14 ar  
    22    13    30 1   
    23    14    15 1   
    24    15    16 1   
    25    15    31 1   
    26    16    17 2   
    27    16    18 1   
    28    18    19 1   
    29    18    21 2   
    30    19    20 3   
    31    21    22 1   
    32    21    23 1   
    33    22    32 1   
    34    22    33 1   
    35    22    34 1   
    36    23    35 1   
@<TRIPOS>SUBSTRUCTURE
     1 CIH         1 TEMP              0 ****  ****    0 ROOT
