@<TRIPOS>MOLECULE
molecule
   35    36     1     0     0
SMALL
bcc


@<TRIPOS>ATOM
      1 ClAE         0.0000     0.0000     0.0000 cl         1 CIH      -0.093400
      2 CAS          1.7360     0.0000     0.0000 ca         1 CIH       0.072400
      3 CAJ          2.4280     0.0000     1.1950 ca         1 CIH      -0.109000
      4 CAH          3.8110     0.0010     1.1970 ca         1 CIH      -0.158000
      5 CAI          4.5090     0.0030     0.0030 ca         1 CIH      -0.161000
      6 CAL          3.8280     0.0030    -1.1980 ca         1 CIH      -0.095000
      7 CAV          2.4350    -0.0040    -1.2070 cp         1 CIH      -0.041000
      8 CAW          1.6990    -0.0100    -2.4940 cp         1 CIH      -0.037000
      9 CAT          0.9080     1.0820    -2.8510 ca         1 CIH       0.040400
     10 CAN          0.2240     1.0740    -4.0500 ca         1 CIH      -0.086000
     11 ClAF         0.7840     2.4500    -1.7900 cl         1 CIH      -0.092400
     12 CAM          1.7990    -1.1050    -3.3510 ca         1 CIH      -0.111000
     13 CAK          1.1150    -1.1080    -4.5470 ca         1 CIH      -0.102000
     14 CAU          0.3230    -0.0210    -4.9000 ca         1 CIH      -0.018400
     15 NAO         -0.3710    -0.0280    -6.1130 ns         1 CIH      -0.447100
     16 CAQ         -0.8510    -1.1850    -6.6100 c          1 CIH       0.613300
     17 OAC         -0.7660    -2.2080    -5.9560 o          1 CIH      -0.631100
     18 CAR         -1.4770    -1.2110    -7.9380 ce         1 CIH      -0.174900
     19 CAG         -1.5780    -0.0070    -8.7070 cg         1 CIH       0.203500
     20 NAA         -1.6590     0.9580    -9.3000 n1         1 CIH      -0.335800
     21 CAP         -1.9630    -2.3820    -8.4400 c2         1 CIH       0.172900
     22 CAB         -2.6060    -2.4090    -9.8030 c3         1 CIH      -0.092900
     23 OAD         -1.8700    -3.5120    -7.7180 oh         1 CIH      -0.452100
     24 HAJ          2.2390     0.1280     2.2540 ha         1 CIH       0.158000
     25 HAH          4.6670     0.2900     1.7940 ha         1 CIH       0.156000
     26 HAI          5.5840    -0.1000     0.0840 ha         1 CIH       0.132000
     27 HAL          4.3800    -0.1610    -2.1160 ha         1 CIH       0.142000
     28 HAN         -0.5810     1.7630    -4.2740 ha         1 CIH       0.157000
     29 HAM          2.0030    -1.8910    -2.6340 ha         1 CIH       0.159000
     30 HAK          0.9460    -1.9230    -5.2410 ha         1 CIH       0.179000
     31 HNAO        -1.0690    -0.6440    -6.4800 hn         1 CIH       0.380500
     32 HAB         -1.8630    -1.9900   -10.4700 hc         1 CIH       0.079700
     33 HABA        -2.3000    -3.4120   -10.0770 hc         1 CIH       0.079700
     34 HABB        -3.6560    -2.3130    -9.5550 hc         1 CIH       0.079700
     35 HOAD        -1.3870    -4.0920    -8.2840 ho         1 CIH       0.433000
@<TRIPOS>BOND
     1     1     2 1
     2     2     3 ar
     3     2     7 ar
     4     3     4 ar
     5     4     5 ar
     6     5     6 ar
     7     6     7 ar
     8     7     8 1
     9     8     9 ar
    10     8    12 ar
    11     9    10 ar
    12     9    11 1
    13    10    14 ar
    14    12    13 ar
    15    13    14 ar
    16    14    15 1
    17    15    16 1
    18    16    17 2
    19    16    18 1
    20    18    19 1
    21    18    21 2
    22    19    20 3
    23    21    22 1
    24    21    23 1
    25     3    24 1
    26     4    25 1
    27     5    26 1
    28     6    27 1
    29    10    28 1
    30    12    29 1
    31    13    30 1
    32    15    31 1
    33    22    32 1
    34    22    33 1
    35    22    34 1
    36    23    35 1
@<TRIPOS>SUBSTRUCTURE
     1 CIH         1 TEMP              0 ****  ****    0 ROOT
