@<TRIPOS>MOLECULE
CII
   47    48     1     0     0
SMALL
bcc


@<TRIPOS>ATOM
      1 O1           0.0000     0.0000     0.0000 o          1 CII      -0.615100
      2 C8           1.2070     0.0000     0.0000 c          1 CII       0.574100
      3 C9           1.9230     0.0000     1.3160 c3         1 CII      -0.136700
      4 C10          2.5670     1.3120     1.7090 c3         1 CII      -0.014400
      5 C11          3.1380     1.2220     3.1290 c3         1 CII      -0.019900
      6 C12          3.2420    -0.2130     3.6230 c3         1 CII      -0.023400
      7 C13          3.8300    -1.1050     2.5390 c3         1 CII      -0.019900
      8 C14          2.9630    -1.1110     1.2820 c3         1 CII      -0.014400
      9 N3           1.8790    -0.0620    -1.1470 ns         1 CII      -0.218900
     10 C7           1.0530    -0.1350    -2.3470 c3         1 CII      -0.075300
     11 C15          1.7990     0.4420    -3.5530 c3         1 CII      -0.065700
     12 C16          3.1570    -0.1870    -3.7880 c3         1 CII       0.003400
     13 C17          1.9470     1.9600    -3.5050 c3         1 CII       0.003400
     14 C6           0.7000    -1.5860    -2.5670 c          1 CII       0.579100
     15 O2          -0.3040    -1.8980    -3.1900 o          1 CII      -0.612100
     16 N2           1.5470    -2.4610    -2.0140 ns         1 CII      -0.037100
     17 C5           1.4170    -3.8590    -2.0800 ca         1 CII      -0.045400
     18 C1           0.5480    -4.4990    -2.9640 ca         1 CII      -0.228800
     19 C2           0.7550    -5.7050    -2.6710 ca         1 CII       0.399700
     20 N1           1.2870    -6.6730    -2.0770 nb         1 CII      -0.547000
     21 C3           2.1360    -6.0640    -1.2180 ca         1 CII       0.399700
     22 C4           2.2020    -4.6590    -1.2290 ca         1 CII      -0.228800
     23 H9           1.2020    -0.2500     2.0850 hc         1 CII       0.066700
     24 H3           2.8100     0.3010    -1.2010 hn         1 CII       0.195500
     25 H101         3.3690     1.5370     1.0160 hc         1 CII       0.012700
     26 H102         1.8240     2.0990     1.6720 hc         1 CII       0.012700
     27 H141         3.5990    -0.9730     0.4160 hc         1 CII       0.012700
     28 H142         2.4570    -2.0660     1.2080 hc         1 CII       0.012700
     29 H111         4.1260     1.6670     3.1370 hc         1 CII       0.014200
     30 H112         2.4930     1.7770     3.8000 hc         1 CII       0.014200
     31 H121         3.8810    -0.2440     4.4970 hc         1 CII       0.019200
     32 H122         2.2540    -0.5730     3.8830 hc         1 CII       0.019200
     33 H131         4.8180    -0.7420     2.2840 hc         1 CII       0.014200
     34 H132         3.9060    -2.1160     2.9190 hc         1 CII       0.014200
     35 H7           0.1430     0.4320    -2.1880 h1         1 CII       0.091700
     36 H15          1.1970     0.2160    -4.4240 hc         1 CII       0.047700
     37 H161         3.5510     0.1490    -4.7390 hc         1 CII       0.008033
     38 H162         3.0580    -1.2660    -3.7990 hc         1 CII       0.008033
     39 H163         3.8330     0.1050    -2.9930 hc         1 CII       0.008033
     40 H171         1.0310     2.4010    -3.1330 hc         1 CII       0.008033
     41 H172         2.7670     2.2220    -2.8470 hc         1 CII       0.008033
     42 H173         2.1500     2.3340    -4.5010 hc         1 CII       0.008033
     43 H1          -0.1530    -4.0730    -3.6710 ha         1 CII       0.145500
     44 H4           2.8810    -4.1690    -0.5420 ha         1 CII       0.145500
     45 H2           0.0810    -6.2120    -3.3500 h4         1 CII      -0.061900
     46 HA           2.3320    -2.0920    -1.5150 hn         1 CII       0.179500
     47 HB           2.7580    -6.6440    -0.5470 h4         1 CII      -0.061900
@<TRIPOS>BOND
     1     1     2 2   
     2     2     3 1   
     3     2     9 1   
     4     3     4 1   
     5     3     8 1   
     6     3    23 1   
     7     4     5 1   
     8     4    25 1   
     9     4    26 1   
    10     5     6 1   
    11     5    29 1   
    12     5    30 1   
    13     6     7 1   
    14     6    31 1   
    15     6    32 1   
    16     7     8 1   
    17     7    33 1   
    18     7    34 1   
    19     8    27 1   
    20     8    28 1   
    21     9    10 1   
    22     9    24 1   
    23    10    11 1   
    24    10    14 1   
    25    10    35 1   
    26    11    12 1   
    27    11    13 1   
    28    11    36 1   
    29    12    37 1   
    30    12    38 1   
    31    12    39 1   
    32    13    40 1   
    33    13    41 1   
    34    13    42 1   
    35    14    15 2   
    36    14    16 1   
    37    16    17 1   
    38    16    46 1   
    39    17    18 ar  
    40    17    22 ar  
    41    18    19 ar  
    42    18    43 1   
    43    19    20 ar  
    44    19    45 1   
    45    20    21 ar  
    46    21    22 ar  
    47    21    47 1   
    48    22    44 1   
@<TRIPOS>SUBSTRUCTURE
     1 CII         1 TEMP              0 ****  ****    0 ROOT
