@<TRIPOS>MOLECULE
molecule
   47    48     1     0     0
SMALL
bcc


@<TRIPOS>ATOM
      1 O1           0.0000     0.0000     0.0000 o          1 CII      -0.584100
      2 C8           1.2070     0.0000     0.0000 c          1 CII       0.651100
      3 C9           1.9230     0.0000     1.3160 c3         1 CII      -0.150700
      4 C10          2.5670     1.3120     1.7090 c3         1 CII      -0.070900
      5 C11          3.1380     1.2220     3.1290 c3         1 CII      -0.077400
      6 C12          3.2420    -0.2130     3.6230 c3         1 CII      -0.078400
      7 C13          3.8300    -1.1050     2.5390 c3         1 CII      -0.077400
      8 C14          2.9630    -1.1110     1.2820 c3         1 CII      -0.070900
      9 N3           1.8790    -0.0620    -1.1470 ns         1 CII      -0.580900
     10 C7           1.0530    -0.1350    -2.3470 c3         1 CII       0.023700
     11 C15          1.7990     0.4420    -3.5530 c3         1 CII      -0.090700
     12 C16          3.1570    -0.1870    -3.7880 c3         1 CII      -0.090600
     13 C17          1.9470     1.9600    -3.5050 c3         1 CII      -0.090600
     14 C6           0.7000    -1.5860    -2.5670 c          1 CII       0.674100
     15 O2          -0.3040    -1.8980    -3.1900 o          1 CII      -0.580100
     16 N2           1.5470    -2.4610    -2.0140 ns         1 CII      -0.463100
     17 C5           1.4170    -3.8590    -2.0800 ca         1 CII       0.103600
     18 C1           0.5480    -4.4990    -2.9640 ca         1 CII      -0.259300
     19 C2           0.7550    -5.7050    -2.6710 ca         1 CII       0.375200
     20 N1           1.2870    -6.6730    -2.0770 nb         1 CII      -0.593000
     21 C3           2.1360    -6.0640    -1.2180 ca         1 CII       0.375200
     22 C4           2.2020    -4.6590    -1.2290 ca         1 CII      -0.259300
     23 H9           1.2020    -0.2500     2.0850 hc         1 CII       0.091700
     24 H3           2.8100     0.3010    -1.2010 hn         1 CII       0.322500
     25 H101         3.3690     1.5370     1.0160 hc         1 CII       0.041950
     26 H102         1.8240     2.0990     1.6720 hc         1 CII       0.041950
     27 H141         3.5990    -0.9730     0.4160 hc         1 CII       0.041950
     28 H142         2.4570    -2.0660     1.2080 hc         1 CII       0.041950
     29 H111         4.1260     1.6670     3.1370 hc         1 CII       0.043450
     30 H112         2.4930     1.7770     3.8000 hc         1 CII       0.043450
     31 H121         3.8810    -0.2440     4.4970 hc         1 CII       0.046700
     32 H122         2.2540    -0.5730     3.8830 hc         1 CII       0.046700
     33 H131         4.8180    -0.7420     2.2840 hc         1 CII       0.043450
     34 H132         3.9060    -2.1160     2.9190 hc         1 CII       0.043450
     35 H7           0.1430     0.4320    -2.1880 h1         1 CII       0.115700
     36 H15          1.1970     0.2160    -4.4240 hc         1 CII       0.073700
     37 H161         3.5510     0.1490    -4.7390 hc         1 CII       0.040033
     38 H162         3.0580    -1.2660    -3.7990 hc         1 CII       0.040033
     39 H163         3.8330     0.1050    -2.9930 hc         1 CII       0.040033
     40 H171         1.0310     2.4010    -3.1330 hc         1 CII       0.040033
     41 H172         2.7670     2.2220    -2.8470 hc         1 CII       0.040033
     42 H173         2.1500     2.3340    -4.5010 hc         1 CII       0.040033
     43 H1          -0.1530    -4.0730    -3.6710 ha         1 CII       0.166000
     44 H4           2.8810    -4.1690    -0.5420 ha         1 CII       0.166000
     45 H2           0.0810    -6.2120    -3.3500 h4         1 CII      -0.013400
     46 HA           2.3320    -2.0920    -1.5150 hn         1 CII       0.331500
     47 HB           2.7580    -6.6440    -0.5470 h4         1 CII      -0.013400
@<TRIPOS>BOND
     1     1     2 2
     2     2     3 1
     3     2     9 1
     4     3     4 1
     5     3     8 1
     6     4     5 1
     7     5     6 1
     8     6     7 1
     9     7     8 1
    10     9    10 1
    11    10    11 1
    12    10    14 1
    13    11    12 1
    14    11    13 1
    15    14    15 2
    16    14    16 1
    17    16    17 1
    18    17    18 ar
    19    17    22 ar
    20    18    19 ar
    21    19    20 ar
    22    20    21 ar
    23    21    22 ar
    24     3    23 1
    25     9    24 1
    26     4    25 1
    27     4    26 1
    28     8    27 1
    29     8    28 1
    30     5    29 1
    31     5    30 1
    32     6    31 1
    33     6    32 1
    34     7    33 1
    35     7    34 1
    36    10    35 1
    37    11    36 1
    38    12    37 1
    39    12    38 1
    40    12    39 1
    41    13    40 1
    42    13    41 1
    43    13    42 1
    44    18    43 1
    45    22    44 1
    46    19    45 1
    47    16    46 1
    48    21    47 1
@<TRIPOS>SUBSTRUCTURE
     1 CII         1 TEMP              0 ****  ****    0 ROOT
