@<TRIPOS>MOLECULE
CIJ
   31    33     1     0     0
SMALL
bcc


@<TRIPOS>ATOM
      1 Cl           0.0000     0.0000     0.0000 cl         1 CIJ       0.010600
      2 OAB          5.9340     1.7070     3.8580 o          1 CIJ      -0.608500
      3 OAC          5.4450     6.8180     5.8210 oh         1 CIJ      -0.491100
      4 OAD          6.6430     4.5770     4.7420 oh         1 CIJ      -0.479100
      5 CAG          3.3560     5.6930     5.8790 ca         1 CIJ      -0.124000
      6 CAH          3.9970     0.0000     0.0000 ca         1 CIJ      -0.128000
      7 CAI          4.2960     0.0000     1.3490 ca         1 CIJ      -0.052000
      8 CAJ          2.5900     4.5630     5.6400 ca         1 CIJ      -0.012000
      9 CAK          1.9580    -0.0020     1.8700 ca         1 CIJ      -0.054000
     10 CAM          4.7080     5.7020     5.5810 ca         1 CIJ       0.101100
     11 CAN          2.6770     0.0010    -0.4170 ca         1 CIJ       0.120900
     12 CAO          5.3190     4.5670     5.0340 ca         1 CIJ       0.184100
     13 CAP          1.6560    -0.0000     0.5200 ca         1 CIJ      -0.082600
     14 CAQ          3.2770    -0.0010     2.2840 ca         1 CIJ      -0.144300
     15 CAR          2.6830     2.0940     4.7220 c          1 CIJ       0.660100
     16 CAS          4.8480     2.0950     4.2410 c          1 CIJ       0.665100
     17 CAT          3.1770     3.4310     5.0980 ca         1 CIJ      -0.169600
     18 CAU          4.5580     3.4320     4.7910 ca         1 CIJ      -0.194600
     19 NAV          3.7100     1.3780     4.2330 n          1 CIJ      -0.133400
     20 HOAC         5.2610     7.4640     5.1590 ho         1 CIJ       0.414000
     21 HOAD         7.1380     4.3890     5.5220 ho         1 CIJ       0.417000
     22 HAG          2.8930     6.5760     6.3040 ha         1 CIJ       0.121000
     23 HAH          4.7960     0.0010    -0.7320 ha         1 CIJ       0.125000
     24 HAI          5.3290    -0.0000     1.6740 ha         1 CIJ       0.126000
     25 HAJ          1.5330     4.5650     5.8760 ha         1 CIJ       0.120000
     26 HAK          1.1610    -0.0030     2.6030 ha         1 CIJ       0.134000
     27 HAL          2.8200    -0.5140     4.2990 h1         1 CIJ       0.044700
     28 HALA         4.5460    -0.5140     3.9140 h1         1 CIJ       0.044700
     29 FAE          2.3850     0.0020    -1.7360 f          1 CIJ      -0.119900
     30 CAL          3.6040    -0.0030     3.7550 c3         1 CIJ       0.121300
     31 OAA          1.5370     1.7040     4.8360 o          1 CIJ      -0.618500
@<TRIPOS>BOND
     1     1    13 1   
     2     2    16 2   
     3     3    10 1   
     4     3    20 1   
     5     4    12 1   
     6     4    21 1   
     7     5     8 ar  
     8     5    10 ar  
     9     5    22 1   
    10     6     7 ar  
    11     6    11 ar  
    12     6    23 1   
    13     7    14 ar  
    14     7    24 1   
    15     8    17 ar  
    16     8    25 1   
    17     9    13 ar  
    18     9    14 ar  
    19     9    26 1   
    20    10    12 ar  
    21    11    13 ar  
    22    11    29 1   
    23    12    18 ar  
    24    14    30 1   
    25    15    17 1   
    26    15    19 1   
    27    15    31 2   
    28    16    18 1   
    29    16    19 1   
    30    17    18 ar  
    31    19    30 1   
    32    27    30 1   
    33    28    30 1   
@<TRIPOS>SUBSTRUCTURE
     1 CIJ         1 TEMP              0 ****  ****    0 ROOT
