@<TRIPOS>MOLECULE
molecule
   31    33     1     0     0
SMALL
bcc


@<TRIPOS>ATOM
      1 Cl           0.0000     0.0000     0.0000 cl         1 CIJ      -0.082400
      2 OAB          5.9340     1.7070     3.8580 o          1 CIJ      -0.566500
      3 OAC          5.4450     6.8180     5.8210 oh         1 CIJ      -0.510100
      4 OAD          6.6430     4.5770     4.7420 oh         1 CIJ      -0.498100
      5 CAG          3.3560     5.6930     5.8790 ca         1 CIJ      -0.141000
      6 CAH          3.9970     0.0000     0.0000 ca         1 CIJ      -0.164000
      7 CAI          4.2960     0.0000     1.3490 ca         1 CIJ      -0.079000
      8 CAJ          2.5900     4.5630     5.6400 ca         1 CIJ      -0.054000
      9 CAK          1.9580    -0.0020     1.8700 ca         1 CIJ      -0.076000
     10 CAM          4.7080     5.7020     5.5810 ca         1 CIJ       0.095100
     11 CAN          2.6770     0.0010    -0.4170 ca         1 CIJ       0.151900
     12 CAO          5.3190     4.5670     5.0340 ca         1 CIJ       0.161100
     13 CAP          1.6560    -0.0000     0.5200 ca         1 CIJ      -0.020600
     14 CAQ          3.2770    -0.0010     2.2840 ca         1 CIJ      -0.136300
     15 CAR          2.6830     2.0940     4.7220 c          1 CIJ       0.725100
     16 CAS          4.8480     2.0950     4.2410 c          1 CIJ       0.728100
     17 CAT          3.1770     3.4310     5.0980 ca         1 CIJ      -0.151600
     18 CAU          4.5580     3.4320     4.7910 ca         1 CIJ      -0.170600
     19 NAV          3.7100     1.3780     4.2330 n          1 CIJ      -0.490400
     20 HOAC         5.2610     7.4640     5.1590 ho         1 CIJ       0.434000
     21 HOAD         7.1380     4.3890     5.5220 ho         1 CIJ       0.438000
     22 HAG          2.8930     6.5760     6.3040 ha         1 CIJ       0.154000
     23 HAH          4.7960     0.0010    -0.7320 ha         1 CIJ       0.155000
     24 HAI          5.3290    -0.0000     1.6740 ha         1 CIJ       0.155000
     25 HAJ          1.5330     4.5650     5.8760 ha         1 CIJ       0.157000
     26 HAK          1.1610    -0.0030     2.6030 ha         1 CIJ       0.163000
     27 HAL          2.8200    -0.5140     4.2990 h1         1 CIJ       0.079700
     28 HALA         4.5460    -0.5140     3.9140 h1         1 CIJ       0.079700
     29 FAE          2.3850     0.0020    -1.7360 f          1 CIJ      -0.125900
     30 CAL          3.6040    -0.0030     3.7550 c3         1 CIJ       0.165300
     31 OAA          1.5370     1.7040     4.8360 o          1 CIJ      -0.577500
@<TRIPOS>BOND
     1     1    13 1
     2    31    15 2
     3     2    16 2
     4     3    10 1
     5     4    12 1
     6    29    11 1
     7     5     8 ar
     8     5    10 ar
     9     6     7 ar
    10     6    11 ar
    11     7    14 ar
    12     8    17 ar
    13     9    13 ar
    14     9    14 ar
    15    30    14 1
    16    30    19 1
    17    10    12 ar
    18    11    13 ar
    19    12    18 ar
    20    15    17 1
    21    15    19 1
    22    16    18 1
    23    16    19 1
    24    17    18 ar
    25     3    20 1
    26     4    21 1
    27     5    22 1
    28     6    23 1
    29     7    24 1
    30     8    25 1
    31     9    26 1
    32    30    27 1
    33    30    28 1
@<TRIPOS>SUBSTRUCTURE
     1 CIJ         1 TEMP              0 ****  ****    0 ROOT
