@<TRIPOS>MOLECULE
CIL
   49    49     1     0     0
SMALL
bcc


@<TRIPOS>ATOM
      1 C1           0.0000     0.0000     0.0000 cx         1 CIL      -0.064400
      2 C2           1.5300     0.0000     0.0000 cx         1 CIL      -0.198700
      3 C3           0.7660     0.0000     1.3250 cx         1 CIL      -0.105000
      4 C4           0.7640    -1.2950     2.1410 c3         1 CIL       0.040900
      5 C5           0.7660     1.2950     2.1410 c3         1 CIL       0.040900
      6 C6           2.2260    -1.2760    -0.4010 c          1 CIL       0.592100
      7 N7           2.9150    -1.3330    -1.5580 ns         1 CIL      -0.054100
      8 C8           3.6480    -2.4820    -1.8820 ce         1 CIL      -0.139600
      9 C9           4.9660    -2.4000    -2.0820 c2         1 CIL      -0.211200
     10 O10          2.1660    -2.2510     0.3170 o          1 CIL      -0.597100
     11 C11          2.9640    -3.7830    -2.0010 c          1 CIL       0.975800
     12 O12          3.6520    -4.8710    -2.3990 o          1 CIL      -0.874800
     13 O13          1.7810    -3.8730    -1.7410 o          1 CIL      -0.874800
     14 C14          5.6830    -1.0950    -1.8470 c3         1 CIL       0.015800
     15 C15          6.8360    -1.3170    -0.8640 c3         1 CIL      -0.022400
     16 C16          7.5640     0.0070    -0.6260 c3         1 CIL      -0.018400
     17 C17          8.7160    -0.2150     0.3560 c3         1 CIL       0.124700
     18 C18         10.8880     0.8960     1.8090 c3         1 CIL       0.072700
     19 C19         11.7210     2.1330     2.1530 c3         1 CIL      -0.173500
     20 C20         12.8080     1.7510     3.1250 c          1 CIL       0.954600
     21 O22         12.5250     1.6180     4.4300 o          1 CIL      -0.820300
     22 O23         13.9340     1.5640     2.7290 o          1 CIL      -0.820300
     23 N21         12.3260     2.6730     0.9290 nz         1 CIL       0.078400
     24 S            9.5800     1.3550     0.6390 ss         1 CIL      -0.480200
     25 H11         -0.4670    -0.9390    -0.2700 hc         1 CIL       0.049700
     26 H12A        -0.4670     0.9390    -0.2700 hc         1 CIL       0.049700
     27 H2           1.9840     0.9480    -0.2620 hc         1 CIL       0.046700
     28 H41          0.1720    -1.1560     3.0370 hc         1 CIL       0.006867
     29 H42          1.7810    -1.5490     2.4160 hc         1 CIL       0.006867
     30 H43          0.3400    -2.0950     1.5480 hc         1 CIL       0.006867
     31 H51         -0.1420     1.3510     2.7290 hc         1 CIL       0.006867
     32 H52          0.8140     2.1440     1.4700 hc         1 CIL       0.006867
     33 H53          1.6250     1.3060     2.8000 hc         1 CIL       0.006867
     34 H7           2.8700    -0.5700    -2.2040 hn         1 CIL       0.143500
     35 H9           5.5320    -3.2890    -2.3330 ha         1 CIL       0.148000
     36 H141         6.0760    -0.7240    -2.7860 hc         1 CIL       0.003700
     37 H142         4.9910    -0.3720    -1.4340 hc         1 CIL       0.003700
     38 H151         7.5280    -2.0410    -1.2770 hc         1 CIL       0.023700
     39 H152         6.4430    -1.6870     0.0750 hc         1 CIL       0.023700
     40 H161         7.9560     0.3770    -1.5660 hc         1 CIL       0.023200
     41 H162         6.8720     0.7310    -0.2140 hc         1 CIL       0.023200
     42 H171         9.4080    -0.9390    -0.0570 h1         1 CIL       0.043700
     43 H172         8.3240    -0.5850     1.2950 h1         1 CIL       0.043700
     44 H181        10.4420     0.4980     2.7120 h1         1 CIL       0.072700
     45 H182        11.5270     0.1440     1.3600 h1         1 CIL       0.072700
     46 H19         11.0830     2.8840     2.6020 hx         1 CIL       0.096700
     47 H211        13.0540     3.3160     1.1720 hn         1 CIL       0.216467
     48 H122        12.7100     1.9230     0.3880 hn         1 CIL       0.216467
     49 H213        11.6270     3.1470     0.3920 hn         1 CIL       0.216467
@<TRIPOS>BOND
     1     1     2 1   
     2     1     3 1   
     3     1    25 1   
     4     1    26 1   
     5     2     3 1   
     6     2     6 1   
     7     2    27 1   
     8     3     4 1   
     9     3     5 1   
    10     4    28 1   
    11     4    29 1   
    12     4    30 1   
    13     5    31 1   
    14     5    32 1   
    15     5    33 1   
    16     6     7 1   
    17     6    10 2   
    18     7     8 1   
    19     7    34 1   
    20     8     9 2   
    21     8    11 1   
    22     9    14 1   
    23     9    35 1   
    24    11    12 1   
    25    11    13 1   
    26    14    15 1   
    27    14    36 1   
    28    14    37 1   
    29    15    16 1   
    30    15    38 1   
    31    15    39 1   
    32    16    17 1   
    33    16    40 1   
    34    16    41 1   
    35    17    24 1   
    36    17    42 1   
    37    17    43 1   
    38    18    19 1   
    39    18    24 1   
    40    18    44 1   
    41    18    45 1   
    42    19    20 1   
    43    19    23 1   
    44    19    46 1   
    45    20    21 1   
    46    20    22 1   
    47    23    47 1   
    48    23    48 1   
    49    23    49 1   
@<TRIPOS>SUBSTRUCTURE
     1 CIL         1 TEMP              0 ****  ****    0 ROOT
