@<TRIPOS>MOLECULE
CIN
   20    20     1     0     0
SMALL
bcc


@<TRIPOS>ATOM
      1 C1         -0.0840   -0.0640    0.0570 ca        1 CIN     -0.048800
      2 C2          1.3160   -0.1990    0.0510 ca        1 CIN     -0.162000
      3 C3          2.0460   -0.1420    1.2340 ca        1 CIN     -0.116500
      4 C4          1.4050    0.0510    2.4620 ca        1 CIN     -0.137600
      5 C5          0.0130    0.1850    2.4740 ca        1 CIN     -0.116500
      6 C6         -0.7220    0.1290    1.2910 ca        1 CIN     -0.162000
      7 C1'        -0.8080   -0.1330   -1.2030 ce        1 CIN     -0.140200
      8 C2'        -2.1200    0.0670   -1.3840 cf        1 CIN     -0.201200
      9 C3'        -2.7950   -0.0240   -2.7300 c         1 CIN      0.890800
     10 C4'         2.2030    0.1120    3.7480 c         1 CIN      0.906200
     11 O1'        -2.1140   -0.2920   -3.7640 o         1 CIN     -0.857800
     12 O2'        -4.0480    0.1780   -2.7700 o         1 CIN     -0.857800
     13 O3'         3.4630   -0.0140    3.6880 o         1 CIN     -0.853300
     14 O4'         1.5850    0.2850    4.8410 o         1 CIN     -0.853300
     15 H2          1.8350   -0.3520   -0.9060 ha        1 CIN      0.109000
     16 H3          3.1420   -0.2470    1.2290 ha        1 CIN      0.134500
     17 H5         -0.4880    0.3370    3.4430 ha        1 CIN      0.134500
     18 H6         -1.8150    0.2360    1.3250 ha        1 CIN      0.109000
     19 H1'        -0.1900   -0.3720   -2.0890 ha        1 CIN      0.127000
     20 H2'        -2.7990    0.3140   -0.5550 ha        1 CIN      0.098000
@<TRIPOS>BOND
     1    1    2 ar  
     2    1    6 ar  
     3    1    7 1   
     4    2    3 ar  
     5    2   15 1   
     6    3    4 ar  
     7    3   16 1   
     8    4    5 ar  
     9    4   10 1   
    10    5    6 ar  
    11    5   17 1   
    12    6   18 1   
    13    7    8 2   
    14    7   19 1   
    15    8    9 1   
    16    8   20 1   
    17    9   11 1   
    18    9   12 1   
    19   10   13 1   
    20   10   14 1   
@<TRIPOS>SUBSTRUCTURE
     1 CIN         1 TEMP              0 ****  ****    0 ROOT
