@<TRIPOS>MOLECULE
molecule
   20    20     1     0     0
SMALL
bcc


@<TRIPOS>ATOM
      1 C1           0.0000     0.0000     0.0000 ca         1 CIN      -0.054800
      2 C2           1.3980     0.0000     0.0000 ca         1 CIN      -0.163500
      3 C3           2.0860     0.0000     1.1920 ca         1 CIN      -0.107500
      4 C4           1.3860     0.0000     2.4030 ca         1 CIN      -0.128600
      5 C5          -0.0100    -0.0010     2.4020 ca         1 CIN      -0.107500
      6 C6          -0.6990     0.0050     1.2110 ca         1 CIN      -0.163500
      7 C1'         -0.7360     0.0000    -1.2750 ce         1 CIN      -0.142200
      8 C2'         -2.0840     0.0000    -1.2760 cf         1 CIN      -0.191200
      9 C3'         -2.8160     0.0000    -2.5430 c          1 CIN       0.875800
     10 C4'          2.1260    -0.0000     3.6810 c          1 CIN       0.889200
     11 O1'         -2.2090     0.0000    -3.5960 o          1 CIN      -0.863300
     12 O2'         -4.1650     0.0000    -2.5440 o          1 CIN      -0.863300
     13 O3'          3.3400    -0.0000     3.6820 o          1 CIN      -0.858800
     14 O4'          1.4520    -0.0000     4.8480 o          1 CIN      -0.858800
     15 H2           1.9400    -0.0020    -0.9380 ha         1 CIN       0.113000
     16 H3           3.1690     0.0000     1.1930 ha         1 CIN       0.135000
     17 H5          -0.5510     0.0010     3.3400 ha         1 CIN       0.135000
     18 H6          -1.7820     0.0050     1.2110 ha         1 CIN       0.113000
     19 H1'         -0.1940     0.0000    -2.2130 ha         1 CIN       0.135000
     20 H2'         -2.6260    -0.0000    -0.3380 ha         1 CIN       0.108000
@<TRIPOS>BOND
     1     1     2 ar
     2     1     6 ar
     3     1     7 1
     4     2     3 ar
     5     2    15 1
     6     3     4 ar
     7     3    16 1
     8     4     5 ar
     9     4    10 1
    10     5     6 ar
    11     5    17 1
    12     6    18 1
    13     7     8 2
    14     7    19 1
    15     8     9 1
    16     8    20 1
    17     9    11 1
    18     9    12 1
    19    10    13 1
    20    10    14 1
@<TRIPOS>SUBSTRUCTURE
     1 CIN         1 TEMP              0 ****  ****    0 ROOT
