@<TRIPOS>MOLECULE
molecule
   49    51     1     0     0
SMALL
bcc


@<TRIPOS>ATOM
      1 O25          0.0000     0.0000     0.0000 o          1 CIO      -0.847300
      2 C23          1.3420     0.0000     0.0000 c          1 CIO       0.895600
      3 O24          1.9460     0.0010    -1.0470 o          1 CIO      -0.847300
      4 C4           2.0950     0.0000     1.3050 c3         1 CIO      -0.171700
      5 C5           3.5990     0.0000     1.0260 c3         1 CIO      -0.063400
      6 C6           4.3640    -0.0010     2.3510 c3         1 CIO      -0.073900
      7 C3           1.7270     1.2480     2.1080 c3         1 CIO      -0.063400
      8 C2           2.4920     1.2460     3.4330 c3         1 CIO      -0.073900
      9 C1           3.9950     1.2480     3.1540 c3         1 CIO       0.054400
     10 C21          4.3500     2.4500     2.3830 c1         1 CIO       0.251700
     11 N22          4.6220     3.3670     1.7710 n1         1 CIO      -0.402800
     12 C7           4.7480     1.2470     4.4580 ca         1 CIO      -0.064300
     13 C8           5.6120     0.2080     4.7550 ca         1 CIO      -0.121000
     14 C9           6.3060     0.2030     5.9500 ca         1 CIO      -0.196000
     15 C10          6.1370     1.2400     6.8540 ca         1 CIO       0.080100
     16 O11          6.8200     1.2360     8.0300 os         1 CIO      -0.289900
     17 C12          7.6180     0.0510     8.0420 c3         1 CIO       0.106700
     18 C13          5.2630     2.2810     6.5580 ca         1 CIO       0.095100
     19 C20          4.5750     2.2830     5.3550 ca         1 CIO      -0.187000
     20 O14          5.0940     3.3000     7.4410 os         1 CIO      -0.286900
     21 C15          4.0450     4.1240     6.9270 c3         1 CIO       0.109100
     22 C16          4.6170     5.1310     5.9080 c3         1 CIO      -0.096400
     23 C17          3.8010     6.4230     6.1550 c3         1 CIO      -0.084400
     24 C18          3.6340     6.4350     7.6930 c3         1 CIO      -0.084400
     25 C19          3.4200     4.9530     8.0620 c3         1 CIO      -0.096400
     26 H4           1.8370    -0.8840     1.8760 hc         1 CIO       0.038700
     27 H51          3.8600     0.8860     0.4600 hc         1 CIO       0.056450
     28 H52          3.8600    -0.8860     0.4590 hc         1 CIO       0.056450
     29 H61          4.1000    -0.8850     2.9180 hc         1 CIO       0.037450
     30 H62          5.4290     0.0020     2.1520 hc         1 CIO       0.037450
     31 H31          1.9910     2.1320     1.5410 hc         1 CIO       0.056450
     32 H32          0.6620     1.2450     2.3080 hc         1 CIO       0.056450
     33 H21          2.2300     2.1310     4.0010 hc         1 CIO       0.037450
     34 H22          2.2320     0.3590     3.9980 hc         1 CIO       0.037450
     35 H8           5.7450    -0.6030     4.0490 ha         1 CIO       0.146000
     36 H9           6.9820    -0.6120     6.1800 ha         1 CIO       0.139000
     37 H121         8.3000     0.0670     7.2010 h1         1 CIO       0.038700
     38 H122         6.9750    -0.8180     7.9680 h1         1 CIO       0.038700
     39 H123         8.1820     0.0050     8.9650 h1         1 CIO       0.038700
     40 H20          3.8930     3.0920     5.1220 ha         1 CIO       0.161000
     41 H15          3.2850     3.5130     6.4550 h1         1 CIO       0.066700
     42 H161         4.4630     4.7740     4.8970 hc         1 CIO       0.058950
     43 H162         5.6690     5.3060     6.1000 hc         1 CIO       0.058950
     44 H171         4.3540     7.2940     5.8230 hc         1 CIO       0.044950
     45 H172         2.8350     6.3650     5.6660 hc         1 CIO       0.044950
     46 H181         2.7690     7.0230     7.9750 hc         1 CIO       0.044950
     47 H182         4.5310     6.8160     8.1670 hc         1 CIO       0.044950
     48 H191         2.3600     4.7400     8.1350 hc         1 CIO       0.058950
     49 H192         3.9150     4.7300     8.9990 hc         1 CIO       0.058950
@<TRIPOS>BOND
     1     1     2 1
     2     2     3 1
     3     2     4 1
     4     4     5 1
     5     4     7 1
     6     4    26 1
     7     5     6 1
     8     5    27 1
     9     5    28 1
    10     6     9 1
    11     6    29 1
    12     6    30 1
    13     7     8 1
    14     7    31 1
    15     7    32 1
    16     8     9 1
    17     8    33 1
    18     8    34 1
    19     9    10 1
    20     9    12 1
    21    10    11 3
    22    12    13 ar
    23    12    19 ar
    24    13    14 ar
    25    13    35 1
    26    14    15 ar
    27    14    36 1
    28    15    16 1
    29    15    18 ar
    30    16    17 1
    31    17    37 1
    32    17    38 1
    33    17    39 1
    34    18    19 ar
    35    18    20 1
    36    19    40 1
    37    20    21 1
    38    21    22 1
    39    21    25 1
    40    21    41 1
    41    22    23 1
    42    22    42 1
    43    22    43 1
    44    23    24 1
    45    23    44 1
    46    23    45 1
    47    24    25 1
    48    24    46 1
    49    24    47 1
    50    25    48 1
    51    25    49 1
@<TRIPOS>SUBSTRUCTURE
     1 CIO         1 TEMP              0 ****  ****    0 ROOT
