@<TRIPOS>MOLECULE
molecule
   28    29     1     0     0
SMALL
bcc


@<TRIPOS>ATOM
      1 C1           0.0000     0.0000     0.0000 c3         1 CIP       0.134100
      2 C2           1.5350     0.0000     0.0000 c3         1 CIP      -0.116700
      3 C3           2.1310     0.0000     1.3850 c3         1 CIP       0.161100
      4 C4           1.5700    -1.1460     2.2260 c3         1 CIP       0.127100
      5 C5           0.0490    -0.9970     2.3060 c3         1 CIP       0.124100
      6 C6          -0.5310    -1.1200     0.8990 c3         1 CIP       0.110100
      7 C7           1.9110    -1.3070    -0.7670 c3         1 CIP      -0.257600
      8 O1          -0.5000    -0.2630    -1.3310 os         1 CIP      -0.473200
      9 O3           3.5500    -0.1350     1.2840 oh         1 CIP      -0.590800
     10 O4           2.1290    -1.0940     3.5410 oh         1 CIP      -0.595800
     11 O5          -0.4900    -2.0220     3.1420 oh         1 CIP      -0.596800
     12 O6          -1.9550    -1.0340     0.9670 oh         1 CIP      -0.583800
     13 P            0.5660    -1.2710    -2.0400 p5         1 CIP       1.298300
     14 O1P          1.0620    -0.7030    -3.3120 o          1 CIP      -0.768300
     15 O2P         -0.0730    -2.7360    -2.2350 oh         1 CIP      -0.717400
     16 H1          -0.3680     0.9570     0.3490 h1         1 CIP       0.106700
     17 H2           1.8970     0.8600    -0.5500 hc         1 CIP       0.091700
     18 H3           1.8950     0.9400     1.8690 h1         1 CIP       0.047700
     19 H4           1.8170    -2.0910     1.7590 h1         1 CIP       0.059700
     20 H5          -0.1970    -0.0240     2.7130 h1         1 CIP       0.059700
     21 H6          -0.2450    -2.0770     0.4800 h1         1 CIP       0.039700
     22 H71          2.8890    -1.2290    -1.2250 hc         1 CIP       0.100700
     23 H72          1.8270    -2.1780    -0.1290 hc         1 CIP       0.100700
     24 HO3          3.9630     0.6630     1.5690 ho         1 CIP       0.412000
     25 HO4          2.5570    -1.9110     3.7330 ho         1 CIP       0.417000
     26 HO5         -0.9320    -1.6290     3.8760 ho         1 CIP       0.419000
     27 HO6         -2.3300    -1.8830     0.7970 ho         1 CIP       0.417000
     28 HOP2        -0.1220    -2.9370    -3.1550 ho         1 CIP       0.474000
@<TRIPOS>BOND
     1     1     2 1
     2     1     6 1
     3     1     8 1
     4     1    16 1
     5     2     3 1
     6     2     7 1
     7     2    17 1
     8     3     4 1
     9     3     9 1
    10     3    18 1
    11     4     5 1
    12     4    10 1
    13     4    19 1
    14     5     6 1
    15     5    11 1
    16     5    20 1
    17     6    12 1
    18     6    21 1
    19     7    13 1
    20     7    22 1
    21     7    23 1
    22     8    13 1
    23     9    24 1
    24    10    25 1
    25    11    26 1
    26    12    27 1
    27    13    14 2
    28    13    15 1
    29    15    28 1
@<TRIPOS>SUBSTRUCTURE
     1 CIP         1 TEMP              0 ****  ****    0 ROOT
