@<TRIPOS>MOLECULE
CIP
   28    29     1     0     0
SMALL
bcc


@<TRIPOS>ATOM
      1 C1         -0.1010   -0.2300    0.0360 c3        1 CIP      0.137100
      2 C2          1.4250   -0.0140   -0.0540 c3        1 CIP     -0.081700
      3 C3          2.1530   -0.0400    1.2850 c3        1 CIP      0.165100
      4 C4          1.6480   -1.1430    2.2280 c3        1 CIP      0.110100
      5 C5          0.1430   -0.9640    2.4600 c3        1 CIP      0.116100
      6 C6         -0.5950   -1.1900    1.1360 c3        1 CIP      0.097100
      7 C7          1.9590   -0.9980   -1.0820 c3        1 CIP     -0.407600
      8 O1         -0.5220   -0.7320   -1.2190 os        1 CIP     -0.554200
      9 O3          3.5320   -0.2260    1.0070 oh        1 CIP     -0.597800
     10 O4          2.3740   -0.9860    3.4350 oh        1 CIP     -0.609800
     11 O5         -0.2360   -1.9380    3.4180 oh        1 CIP     -0.608800
     12 O6         -1.9680   -0.9460    1.4020 oh        1 CIP     -0.607800
     13 P           0.7280   -1.2520   -2.1400 p5        1 CIP      1.539300
     14 O1P         0.7380   -0.7520   -3.5030 o         1 CIP     -0.820300
     15 O2P         0.4530   -2.8280   -2.1670 oh        1 CIP     -0.781400
     16 H1         -0.6220    0.7620    0.1900 h1        1 CIP      0.089700
     17 H2          1.5850    1.0240   -0.4720 hc        1 CIP      0.080700
     18 H3          2.0120    0.9550    1.8010 h1        1 CIP      0.055700
     19 H4          1.8570   -2.1630    1.7990 h1        1 CIP      0.062700
     20 H5         -0.0800    0.0630    2.8630 h1        1 CIP      0.065700
     21 H6         -0.4710   -2.2640    0.8190 h1        1 CIP      0.066700
     22 H71         2.3030   -1.9320   -0.5630 hc        1 CIP      0.137200
     23 H72         2.8930   -0.5780   -1.5380 hc        1 CIP      0.137200
     24 HO3         3.9770   -0.2890    1.8630 ho        1 CIP      0.429000
     25 HO4         1.9730   -1.5810    4.0830 ho        1 CIP      0.435000
     26 HO5        -1.1990   -1.8950    3.4910 ho        1 CIP      0.432000
     27 HO6        -2.4340   -1.0440    0.5610 ho        1 CIP      0.429000
     28 HOP2        0.1130   -3.1810   -2.9870 ho        1 CIP      0.482000
@<TRIPOS>BOND
     1    1    2 1   
     2    1    6 1   
     3    1    8 1   
     4    1   16 1   
     5    2    3 1   
     6    2    7 1   
     7    2   17 1   
     8    3    4 1   
     9    3    9 1   
    10    3   18 1   
    11    4    5 1   
    12    4   10 1   
    13    4   19 1   
    14    5    6 1   
    15    5   11 1   
    16    5   20 1   
    17    6   12 1   
    18    6   21 1   
    19    7   13 1   
    20    7   22 1   
    21    7   23 1   
    22    8   13 1   
    23    9   24 1   
    24   10   25 1   
    25   11   26 1   
    26   12   27 1   
    27   13   14 2   
    28   13   15 1   
    29   15   28 1   
@<TRIPOS>SUBSTRUCTURE
     1 CIP         1 TEMP              0 ****  ****    0 ROOT
