@<TRIPOS>MOLECULE
molecule
   84    88     1     0     0
SMALL
bcc


@<TRIPOS>ATOM
      1 N1           0.0000     0.0000     0.0000 nb         1 CIQ      -0.833000
      2 C2           1.3230     0.0000     0.0000 ca         1 CIQ       0.736300
      3 N3           2.0370     0.0000     1.1000 nb         1 CIQ      -0.779000
      4 C4           1.4370    -0.0010     2.3010 ca         1 CIQ       0.491600
      5 C5           0.0210    -0.0010     2.3530 ca         1 CIQ      -0.327600
      6 C6          -0.6930    -0.0010     1.1310 ca         1 CIQ       0.751200
      7 CAA         -1.9610    -0.0050     5.9260 c3         1 CIQ       0.127700
      8 CAB         -6.0150    -2.4160    -3.3440 c3         1 CIQ      -0.091100
      9 CAC         -7.3170    -0.4190    -2.5960 c3         1 CIQ      -0.091100
     10 CAD          2.1700    -0.0020     3.4940 ca         1 CIQ      -0.273300
     11 CAE         -0.6320    -0.0030     3.5930 ca         1 CIQ      -0.169000
     12 CAF          4.5260     0.0020    -2.8770 c3         1 CIQ      -0.080400
     13 CAG          3.6500    -1.2470    -2.7740 c3         1 CIQ      -0.080400
     14 CAH          3.6490     1.2510    -2.7740 c3         1 CIQ      -0.080400
     15 CAI          8.3560    -0.3080     9.6590 c3         1 CIQ      -0.088400
     16 CAJ          7.4700    -1.5550     9.8860 c3         1 CIQ      -0.088400
     17 CAK          4.2580    -0.0040     7.1460 c3         1 CIQ      -0.080400
     18 CAL          3.6380    -0.0020     5.7470 c3         1 CIQ       0.132400
     19 CAM          2.9200    -1.2480    -1.4290 c3         1 CIQ      -0.071400
     20 CAN          2.9190     1.2510    -1.4280 c3         1 CIQ      -0.071400
     21 CAO         -4.1830     0.6100     0.0380 c3         1 CIQ      -0.093900
     22 CAP         -2.9410    -1.4380    -0.6640 c3         1 CIQ      -0.093900
     23 CAQ          7.8440     0.2390     8.3020 c3         1 CIQ       0.144300
     24 CAR          6.2180    -1.3220     9.0200 c3         1 CIQ       0.144300
     25 CAS          5.7840    -0.0020     7.0270 c3         1 CIQ       0.155800
     26 CAT         -4.9520     0.5530    -1.2840 c3         1 CIQ       0.164300
     27 CAU         -3.7450    -1.4360    -1.9650 c3         1 CIQ       0.164300
     28 NAX         -2.0720    -0.0010     1.1170 nu         1 CIQ      -0.895900
     29 CBA          0.1020    -0.0040     4.7430 ca         1 CIQ       0.110100
     30 CBB          1.5040    -0.0030     4.6990 ca         1 CIQ       0.167100
     31 CBG         -5.9180    -0.9500    -2.9170 c3         1 CIQ       0.167500
     32 CBH         -2.7920     0.0000    -0.1590 c3         1 CIQ       0.240500
     33 CBI          2.0420     0.0010    -1.3250 c3         1 CIQ      -0.095000
     34 NBJ          6.3800    -0.0030     8.3690 n3         1 CIQ      -0.703600
     35 NBK         -5.0670    -0.8430    -1.7240 n3         1 CIQ      -0.731600
     36 HAA         -2.3140    -0.8760     5.3880 h1         1 CIQ       0.040367
     37 HAAA        -2.3150     0.8920     5.4340 h1         1 CIQ       0.040367
     38 HAAB        -2.3360    -0.0310     6.9420 h1         1 CIQ       0.040367
     39 HAB         -6.1010    -3.0430    -2.4650 hc         1 CIQ       0.040033
     40 HABA        -5.1250    -2.6900    -3.8980 hc         1 CIQ       0.040033
     41 HABB        -6.8870    -2.5520    -3.9720 hc         1 CIQ       0.040033
     42 HAC         -8.0270    -0.8200    -3.3090 hc         1 CIQ       0.040033
     43 HACA        -7.5980    -0.7250    -1.5950 hc         1 CIQ       0.040033
     44 HACB        -7.3160     0.6620    -2.6560 hc         1 CIQ       0.040033
     45 HAD          3.2450    -0.1300     3.4690 ha         1 CIQ       0.161000
     46 HAE         -1.7090     0.1030     3.6380 ha         1 CIQ       0.134000
     47 HAF          5.2490     0.0020    -2.0700 hc         1 CIQ       0.040700
     48 HAFA         5.0420     0.0020    -3.8300 hc         1 CIQ       0.040700
     49 HAG          2.9230    -1.2450    -3.5770 hc         1 CIQ       0.039950
     50 HAGA         4.2720    -2.1310    -2.8460 hc         1 CIQ       0.039950
     51 HAH          4.2710     2.1350    -2.8450 hc         1 CIQ       0.039950
     52 HAHA         2.9230     1.2480    -3.5770 hc         1 CIQ       0.039950
     53 HAIA         8.2000     0.4190    10.4470 hc         1 CIQ       0.049200
     54 HAJ          7.1940    -1.6320    10.9310 hc         1 CIQ       0.049200
     55 HAJA         7.9900    -2.4470     9.5600 hc         1 CIQ       0.049200
     56 HAK          3.9420     0.8830     7.6820 hc         1 CIQ       0.065200
     57 HAKA         3.9340    -0.8860     7.6840 hc         1 CIQ       0.065200
     58 HAL          3.9580     0.8830     5.2110 h1         1 CIQ       0.038200
     59 HALA         3.9590    -0.8860     5.2090 h1         1 CIQ       0.038200
     60 HAM          3.6470    -1.2460    -0.6250 hc         1 CIQ       0.051950
     61 HAMA         2.2980    -2.1320    -1.3580 hc         1 CIQ       0.051950
     62 HAN          3.6450     1.2480    -0.6240 hc         1 CIQ       0.051950
     63 HANA         2.2960     2.1340    -1.3560 hc         1 CIQ       0.051950
     64 HAO         -4.0820     1.6420     0.3520 hc         1 CIQ       0.054700
     65 HAOA        -4.7200     0.0480     0.7930 hc         1 CIQ       0.054700
     66 HAP         -3.4600    -2.0300     0.0800 hc         1 CIQ       0.054700
     67 HAPA        -1.9600    -1.8590    -0.8480 hc         1 CIQ       0.054700
     68 HAQ          8.0510     1.2980     8.2170 h1         1 CIQ       0.042200
     69 HAQA         8.2840    -0.3120     7.4800 h1         1 CIQ       0.042200
     70 HAR          6.1420    -2.0970     8.2680 h1         1 CIQ       0.042200
     71 HARA         5.3340    -1.3180     9.6460 h1         1 CIQ       0.042200
     72 HAS          6.1030     0.8830     6.4910 h1         1 CIQ       0.034700
     73 HASA         6.1050    -0.8860     6.4890 h1         1 CIQ       0.034700
     74 HAT         -4.4190     1.1240    -2.0350 h1         1 CIQ       0.038950
     75 HATA        -5.9420     0.9680    -1.1420 h1         1 CIQ       0.038950
     76 HAU         -3.2200    -0.8530    -2.7120 h1         1 CIQ       0.038950
     77 HAUA        -3.8660    -2.4540    -2.3140 h1         1 CIQ       0.038950
     78 HNAX        -2.5820     0.0160     1.9790 hn         1 CIQ       0.446800
     79 HBG         -5.4860    -0.3670    -3.7220 h1         1 CIQ       0.022700
     80 HBH         -2.2430     0.5830    -0.8890 h1         1 CIQ       0.082700
     81 HBI          1.3210     0.0010    -2.1330 hc         1 CIQ       0.070700
     82 OAY         -0.5320    -0.0050     5.9460 os         1 CIQ      -0.312900
     83 OAZ          2.2130    -0.0040     5.8590 os         1 CIQ      -0.309900
     84 HAI          9.3990    -0.5900     9.5880 hc         1 CIQ       0.049200
@<TRIPOS>BOND
     1     1     2 ar
     2     1     6 ar
     3     2     3 ar
     4     2    33 1
     5     3     4 ar
     6     4     5 ar
     7     4    10 ar
     8     5     6 ar
     9     5    11 ar
    10     6    28 1
    11     7    82 1
    12     8    31 1
    13     9    31 1
    14    10    30 ar
    15    11    29 ar
    16    12    13 1
    17    12    14 1
    18    13    19 1
    19    14    20 1
    20    15    16 1
    21    15    23 1
    22    16    24 1
    23    17    18 1
    24    17    25 1
    25    18    83 1
    26    19    33 1
    27    20    33 1
    28    21    26 1
    29    21    32 1
    30    22    27 1
    31    22    32 1
    32    23    34 1
    33    24    34 1
    34    25    34 1
    35    26    35 1
    36    27    35 1
    37    28    32 1
    38    82    29 1
    39    83    30 1
    40    29    30 ar
    41    31    35 1
    42     7    36 1
    43     7    37 1
    44     7    38 1
    45     8    39 1
    46     8    40 1
    47     8    41 1
    48     9    42 1
    49     9    43 1
    50     9    44 1
    51    10    45 1
    52    11    46 1
    53    12    47 1
    54    12    48 1
    55    13    49 1
    56    13    50 1
    57    14    51 1
    58    14    52 1
    59    15    84 1
    60    15    53 1
    61    16    54 1
    62    16    55 1
    63    17    56 1
    64    17    57 1
    65    18    58 1
    66    18    59 1
    67    19    60 1
    68    19    61 1
    69    20    62 1
    70    20    63 1
    71    21    64 1
    72    21    65 1
    73    22    66 1
    74    22    67 1
    75    23    68 1
    76    23    69 1
    77    24    70 1
    78    24    71 1
    79    25    72 1
    80    25    73 1
    81    26    74 1
    82    26    75 1
    83    27    76 1
    84    27    77 1
    85    28    78 1
    86    31    79 1
    87    32    80 1
    88    33    81 1
@<TRIPOS>SUBSTRUCTURE
     1 CIQ         1 TEMP              0 ****  ****    0 ROOT
