@<TRIPOS>MOLECULE
CIT
   18    17     1     0     0
SMALL
bcc


@<TRIPOS>ATOM
      1 C1         -0.4690   -0.7000   -0.2390 c         1 CIT      0.914600
      2 O1          0.6300   -1.1950    0.1650 o         1 CIT     -0.907800
      3 O2         -1.4760   -0.6780    0.5500 o         1 CIT     -0.907800
      4 C2         -0.6770   -0.1930   -1.6630 c3        1 CIT     -0.167900
      5 C3          0.5140    0.3380   -2.4660 c3        1 CIT      0.097800
      6 O7          1.6550   -0.5000   -2.3250 oh        1 CIT     -0.627800
      7 C4          0.1840    0.4170   -3.9690 c3        1 CIT     -0.167900
      8 C5         -0.1980   -0.8190   -4.7800 c         1 CIT      0.914600
      9 O3          0.5310   -1.1380   -5.7810 o         1 CIT     -0.907800
     10 O4         -1.2850   -1.4440   -4.5710 o         1 CIT     -0.907800
     11 C6          0.8850    1.7900   -2.0270 c         1 CIT      0.892600
     12 O5          2.0150    2.0100   -1.4890 o         1 CIT     -0.895300
     13 O6          0.0740    2.7470   -2.2480 o         1 CIT     -0.895300
     14 H21        -1.4420    0.6250   -1.6280 hc        1 CIT      0.035950
     15 H22        -1.1140   -1.0530   -2.2420 hc        1 CIT      0.035950
     16 HO7         1.8700   -0.4710   -1.3800 ho        1 CIT      0.422000
     17 H41         1.0800    0.8740   -4.4690 hc        1 CIT      0.035950
     18 H42        -0.6710    1.1390   -4.0550 hc        1 CIT      0.035950
@<TRIPOS>BOND
     1    1    2 1   
     2    1    3 1   
     3    1    4 1   
     4    4    5 1   
     5    4   14 1   
     6    4   15 1   
     7    5    6 1   
     8    5    7 1   
     9    5   11 1   
    10    6   16 1   
    11    7    8 1   
    12    7   17 1   
    13    7   18 1   
    14    8    9 1   
    15    8   10 1   
    16   11   12 1   
    17   11   13 1   
@<TRIPOS>SUBSTRUCTURE
     1 CIT         1 TEMP              0 ****  ****    0 ROOT
