@<TRIPOS>MOLECULE
molecule
   34    35     1     0     0
SMALL
bcc


@<TRIPOS>ATOM
      1 C1           0.0000     0.0000     0.0000 c3         1 CIU      -0.076900
      2 C2           1.5300     0.0000     0.0000 c3         1 CIU      -0.095400
      3 C3           2.0410     0.0000     1.4420 c3         1 CIU       0.132700
      4 C4           1.5310    -1.2480     2.1630 c3         1 CIU      -0.095400
      5 C5           0.0010    -1.2480     2.1630 c3         1 CIU      -0.076900
      6 C6          -0.5090    -1.2490     0.7210 c3         1 CIU      -0.083400
      7 N1           3.5050     0.0000     1.4420 ns         1 CIU      -0.596900
      8 C7           4.1790     0.5840     2.4530 c          1 CIU       0.781100
      9 O2           3.5720     1.1110     3.3640 o          1 CIU      -0.643100
     10 N2           5.5270     0.5840     2.4520 ns         1 CIU      -0.498100
     11 C8           6.2270     1.2940     3.4350 ca         1 CIU       0.092600
     12 C9           5.7480     2.5160     3.8840 ca         1 CIU      -0.146000
     13 C10          6.4410     3.2140     4.8530 ca         1 CIU      -0.081500
     14 C11          7.6110     2.6950     5.3770 ca         1 CIU       0.035900
     15 C12          8.0940     1.4800     4.9270 ca         1 CIU      -0.081500
     16 C13          7.4020     0.7750     3.9620 ca         1 CIU      -0.146000
     17 HC11        -0.3600     0.8840     0.5130 hc         1 CIU       0.045950
     18 HC12        -0.3600    -0.0030    -1.0220 hc         1 CIU       0.045950
     19 HC21         1.8900    -0.8860    -0.5090 hc         1 CIU       0.047200
     20 HC22         1.8900     0.8860    -0.5090 hc         1 CIU       0.047200
     21 HC31         1.6750     0.8830     1.9520 h1         1 CIU       0.086700
     22 HC41         1.8910    -2.1320     1.6510 hc         1 CIU       0.047200
     23 HC42         1.8910    -1.2450     3.1850 hc         1 CIU       0.047200
     24 HC51        -0.3590    -2.1340     2.6730 hc         1 CIU       0.045950
     25 HC52        -0.3590    -0.3620     2.6720 hc         1 CIU       0.045950
     26 HC61        -0.1450    -2.1330     0.2120 hc         1 CIU       0.042700
     27 HC62        -1.5920    -1.2480     0.7230 hc         1 CIU       0.042700
     28 HN1          4.0060    -0.4260     0.6880 hn         1 CIU       0.306500
     29 HN2          6.0270     0.1080     1.7270 hn         1 CIU       0.318500
     30 H9           4.8320     2.9230     3.4740 ha         1 CIU       0.149500
     31 H10          6.0680     4.1680     5.2040 ha         1 CIU       0.143500
     32 H12          9.0110     1.0760     5.3390 ha         1 CIU       0.143500
     33 H13          7.7800    -0.1770     3.6090 ha         1 CIU       0.149500
     34 I4           8.6600     3.7570     6.8460 i          1 CIU      -0.175900
@<TRIPOS>BOND
     1     1     2 1
     2     1     6 1
     3     1    17 1
     4     1    18 1
     5     2     3 1
     6     2    19 1
     7     2    20 1
     8     3     4 1
     9     3     7 1
    10     3    21 1
    11     4     5 1
    12     4    22 1
    13     4    23 1
    14     5     6 1
    15     5    24 1
    16     5    25 1
    17     6    26 1
    18     6    27 1
    19     7     8 1
    20     7    28 1
    21     8     9 2
    22     8    10 1
    23    10    11 1
    24    10    29 1
    25    11    12 ar
    26    11    16 ar
    27    34    14 1
    28    12    13 ar
    29    12    30 1
    30    13    14 ar
    31    13    31 1
    32    14    15 ar
    33    15    16 ar
    34    15    32 1
    35    16    33 1
@<TRIPOS>SUBSTRUCTURE
     1 CIU         1 TEMP              0 ****  ****    0 ROOT
