@<TRIPOS>MOLECULE
CIW
   35    38     1     0     0
SMALL
bcc


@<TRIPOS>ATOM
      1 C1           0.0000     0.0000     0.0000 ca         1 CIW      -0.067600
      2 C2           1.3840     0.0000     0.0000 ca         1 CIW      -0.071000
      3 C3           2.0820     0.0000     1.1910 ca         1 CIW      -0.102000
      4 C4           1.3950     0.0020     2.4030 ca         1 CIW      -0.059400
      5 C5           0.0060     0.0010     2.3900 ca         1 CIW      -0.161300
      6 C6          -0.6880     0.0010     1.2020 ca         1 CIW      -0.050000
      7 C7          -0.4320     0.0030     3.8370 c3         1 CIW      -0.053100
      8 C8           0.8660     0.0040     4.6150 c          1 CIW       0.616500
      9 O9           0.9810     0.0040     5.8230 o          1 CIW      -0.639500
     10 N10          1.8660     0.0020     3.7180 n          1 CIW       0.034000
     11 C11          3.2860     0.0020     4.0770 c3         1 CIW       0.090300
     12 C12          3.8010     1.4180     4.0890 ca         1 CIW      -0.098300
     13 C13          2.9300     2.4690     3.9050 ca         1 CIW      -0.132000
     14 C14          3.3970     3.7740     3.9140 ca         1 CIW      -0.114000
     15 C15          4.7420     4.0360     4.1100 ca         1 CIW       0.027100
     16 C16          5.6340     2.9830     4.2990 ca         1 CIW       0.084100
     17 C17          5.1620     1.6650     4.2940 ca         1 CIW      -0.041600
     18 C18          6.0960     0.5430     4.4990 c          1 CIW       0.971200
     19 O19          6.7130     0.0870     3.5560 o          1 CIW      -0.875300
     20 O20          6.2670     0.0250     5.7300 o          1 CIW      -0.875300
     21 O21          6.8850     3.4950     4.4670 os         1 CIW      -0.288900
     22 C22          6.6920     4.8850     4.7890 c3         1 CIW       0.420200
     23 O23          5.4370     5.2100     4.1610 os         1 CIW      -0.335900
     24 Cl24        -0.8710     0.0050    -1.5020 cl         1 CIW      -0.054400
     25 H2           1.9230    -0.0010    -0.9400 ha         1 CIW       0.112000
     26 H3           3.1650    -0.0000     1.1830 ha         1 CIW       0.134000
     27 H6          -1.7720     0.0010     1.2070 ha         1 CIW       0.107000
     28 H7          -1.0050     0.8960     4.0570 hc         1 CIW       0.046200
     29 H7A         -1.0060    -0.8880     4.0590 hc         1 CIW       0.046200
     30 H11          3.4090    -0.4350     5.0610 h1         1 CIW       0.066700
     31 H11A         3.8420    -0.5790     3.3510 h1         1 CIW       0.066700
     32 H13          1.8750     2.2750     3.7580 ha         1 CIW       0.098000
     33 H14          2.7050     4.5950     3.7690 ha         1 CIW       0.094000
     34 H22          6.6090     5.0060     5.8620 h2         1 CIW       0.002200
     35 H22A         7.4860     5.4780     4.3510 h2         1 CIW       0.002200
@<TRIPOS>BOND
     1     1     2 ar  
     2     1     6 ar  
     3     1    24 1   
     4     2     3 ar  
     5     2    25 1   
     6     3     4 ar  
     7     3    26 1   
     8     4     5 ar  
     9     4    10 1   
    10     5     6 ar  
    11     5     7 1   
    12     6    27 1   
    13     7     8 1   
    14     7    28 1   
    15     7    29 1   
    16     8     9 2   
    17     8    10 1   
    18    10    11 1   
    19    11    12 1   
    20    11    30 1   
    21    11    31 1   
    22    12    13 ar  
    23    12    17 ar  
    24    13    14 ar  
    25    13    32 1   
    26    14    15 ar  
    27    14    33 1   
    28    15    16 ar  
    29    15    23 1   
    30    16    17 ar  
    31    16    21 1   
    32    17    18 1   
    33    18    19 1   
    34    18    20 1   
    35    21    22 1   
    36    22    23 1   
    37    22    34 1   
    38    22    35 1   
@<TRIPOS>SUBSTRUCTURE
     1 CIW         1 TEMP              0 ****  ****    0 ROOT
