@<TRIPOS>MOLECULE
CIY
   23    23     1     0     0
SMALL
bcc


@<TRIPOS>ATOM
      1 C1         -0.1190   -0.5680   -0.1060 ca        1 CIY     -0.090800
      2 C2          1.2840   -0.4930   -0.0830 ca        1 CIY     -0.145000
      3 C3          1.9330   -0.0210    1.0550 ca        1 CIY      0.042100
      4 O3          3.3050    0.1070    1.1950 os        1 CIY     -0.347900
      5 C4          1.1850    0.3700    2.1930 ca        1 CIY      0.125100
      6 O4          1.7670    0.8390    3.3440 oh        1 CIY     -0.490100
      7 C5         -0.2110    0.2790    2.1690 ca        1 CIY     -0.140000
      8 C6         -0.8520   -0.1870    1.0230 ca        1 CIY     -0.109000
      9 C7         -0.7700   -1.0780   -1.3030 ce        1 CIY     -0.040200
     10 C8         -1.8800   -0.5950   -1.8790 cf        1 CIY     -0.264200
     11 C9         -2.6140    0.5930   -1.4250 c         1 CIY      0.555100
     12 O9         -3.7650    0.8430   -1.7900 o         1 CIY     -0.526100
     13 C3M         4.0850   -0.2440    0.0580 c3        1 CIY      0.120700
     14 H2          1.8580   -0.8040   -0.9680 ha        1 CIY      0.142000
     15 HO4         2.7290    0.8490    3.2160 ho        1 CIY      0.439000
     16 H5         -0.7850    0.5760    3.0590 ha        1 CIY      0.158000
     17 H6         -1.9500   -0.2690    1.0150 ha        1 CIY      0.143000
     18 H7         -0.2670   -1.9550   -1.7550 ha        1 CIY      0.131000
     19 H8         -2.3010   -1.0880   -2.7730 ha        1 CIY      0.149000
     20 H9         -2.0630    1.2750   -0.7370 h4        1 CIY      0.004200
     21 H3M         3.9480   -1.3240   -0.1930 h1        1 CIY      0.047700
     22 H3MA        5.1350   -0.0460    0.3930 h1        1 CIY      0.047700
     23 H3MB        3.8200    0.3990   -0.8150 h1        1 CIY      0.047700
@<TRIPOS>BOND
     1    1    2 ar  
     2    1    8 ar  
     3    1    9 1   
     4    2    3 ar  
     5    2   14 1   
     6    3    4 1   
     7    3    5 ar  
     8    4   13 1   
     9    5    6 1   
    10    5    7 ar  
    11    6   15 1   
    12    7    8 ar  
    13    7   16 1   
    14    8   17 1   
    15    9   10 2   
    16    9   18 1   
    17   10   11 1   
    18   10   19 1   
    19   11   12 2   
    20   11   20 1   
    21   13   21 1   
    22   13   22 1   
    23   13   23 1   
@<TRIPOS>SUBSTRUCTURE
     1 CIY         1 TEMP              0 ****  ****    0 ROOT
