@<TRIPOS>MOLECULE
molecule
   23    23     1     0     0
SMALL
bcc


@<TRIPOS>ATOM
      1 C1           0.0000     0.0000     0.0000 ca         1 CIY      -0.058800
      2 C2           1.4010     0.0000     0.0000 ca         1 CIY      -0.189000
      3 C3           2.0870     0.0000     1.1970 ca         1 CIY       0.122100
      4 O3           3.4470     0.0000     1.2010 os         1 CIY      -0.311900
      5 C4           1.3860    -0.0010     2.4040 ca         1 CIY       0.095100
      6 O4           2.0640    -0.0010     3.5800 oh         1 CIY      -0.502100
      7 C5          -0.0030    -0.0010     2.4050 ca         1 CIY      -0.135000
      8 C6          -0.6960     0.0050     1.2150 ca         1 CIY      -0.126000
      9 C7          -0.7360     0.0010    -1.2710 ce         1 CIY      -0.034200
     10 C8          -2.0910     0.0010    -1.2680 cf         1 CIY      -0.278200
     11 C9          -2.7980     0.0020    -2.4860 c          1 CIY       0.564100
     12 O9          -4.0120     0.0010    -2.4840 o          1 CIY      -0.525100
     13 C3M          4.0990     0.0020    -0.0700 c3         1 CIY       0.125700
     14 H2           1.9440    -0.0040    -0.9370 ha         1 CIY       0.142000
     15 HO4          2.0050    -0.8540     3.9770 ho         1 CIY       0.419000
     16 H5          -0.5420     0.0010     3.3440 ha         1 CIY       0.147000
     17 H6          -1.7790     0.0050     1.2180 ha         1 CIY       0.143000
     18 H7          -0.1960     0.0010    -2.2100 ha         1 CIY       0.133000
     19 H8          -2.6310     0.0000    -0.3290 ha         1 CIY       0.154000
     20 H9          -2.2580     0.0020    -3.4260 h4         1 CIY      -0.011800
     21 H3M          5.1730     0.0040     0.0750 h1         1 CIY       0.042367
     22 H3MA         3.8080     0.8860    -0.6240 h1         1 CIY       0.042367
     23 H3MB         3.8120    -0.8830    -0.6240 h1         1 CIY       0.042367
@<TRIPOS>BOND
     1     8     1 ar
     2     2     1 ar
     3     1     9 1
     4     3     2 ar
     5     2    14 1
     6     5     3 ar
     7     4     3 1
     8     4    13 1
     9     6     5 1
    10     5     7 ar
    11     6    15 1
    12     7     8 ar
    13     7    16 1
    14     8    17 1
    15     9    10 2
    16     9    18 1
    17    10    11 1
    18    10    19 1
    19    11    12 2
    20    11    20 1
    21    13    21 1
    22    13    22 1
    23    13    23 1
@<TRIPOS>SUBSTRUCTURE
     1 CIY         1 TEMP              0 ****  ****    0 ROOT
