@<TRIPOS>MOLECULE
molecule
   13    12     1     0     0
SMALL
bcc


@<TRIPOS>ATOM
      1 O4           0.0000     0.0000     0.0000 o          1 CIZ      -0.866800
      2 C5           1.2150     0.0000     0.0000 c          1 CIZ       0.871800
      3 O3           1.8880     0.0000     1.1680 o          1 CIZ      -0.866800
      4 C3           1.9520    -0.0060    -1.2780 ce         1 CIZ       0.038600
      5 C4           2.0450     1.2540    -2.0990 c3         1 CIZ      -0.045900
      6 C2           2.5420    -1.1330    -1.7070 cf         1 CIZ      -0.706200
      7 C1           2.3410    -2.3980    -0.9720 c          1 CIZ       0.884800
      8 O1           3.0220    -3.5030    -1.3340 o          1 CIZ      -0.840300
      9 O2           1.5630    -2.4420    -0.0410 o          1 CIZ      -0.840300
     10 H2           3.0690     1.3980    -2.4240 hc         1 CIZ       0.014700
     11 H3           1.4000     1.1680    -2.9650 hc         1 CIZ       0.014700
     12 H4           1.7340     2.1000    -1.4990 hc         1 CIZ       0.014700
     13 H5           3.1300    -1.3820    -0.8320 ha         1 CIZ       0.327000
@<TRIPOS>BOND
     1     1     2 1
     2     9     7 1
     3     7     6 1
     4     7     8 1
     5     6     4 2
     6     4     5 1
     7     4     2 1
     8     2     3 1
     9     5    10 1
    10     5    11 1
    11     5    12 1
    12     6    13 1
@<TRIPOS>SUBSTRUCTURE
     1 CIZ         1 TEMP              0 ****  ****    0 ROOT
