@<TRIPOS>MOLECULE
CJ2
   43    45     1     0     0
SMALL
bcc


@<TRIPOS>ATOM
      1 C10          0.0000     0.0000     0.0000 ca         1 CJ2      -0.173000
      2 C11          0.0040    -0.0030     2.4020 ca         1 CJ2      -0.173000
      3 C14         -2.6980     0.0070     2.4790 c3         1 CJ2       0.243700
      4 C16          6.5630    -0.9090     0.9410 c          1 CJ2       0.644700
      5 C20          8.7360     0.9050     0.6400 ca         1 CJ2      -0.080000
      6 C22          9.8630     1.6880     0.7960 ca         1 CJ2      -0.084000
      7 C23          8.7070     3.0470     2.3960 ca         1 CJ2      -0.193300
      8 C24          9.8490     2.7570     1.6720 ca         1 CJ2      -0.061000
      9 C25          8.6970     4.2130     3.3510 c3         1 CJ2       0.640200
     10 C01          5.3430    -3.1560     0.8590 cc         1 CJ2       0.608600
     11 C02          5.3780    -1.7720     0.9550 cd         1 CJ2      -0.561200
     12 C06          3.5810    -0.0060     1.1950 c3         1 CJ2       0.031600
     13 C07          2.0740     0.0000     1.1970 ca         1 CJ2      -0.179300
     14 C08          1.3820     0.0000     0.0000 ca         1 CJ2      -0.021500
     15 C09          1.3860    -0.0090     2.3970 ca         1 CJ2      -0.021500
     16 C12         -0.6930     0.0010     1.2020 ca         1 CJ2       0.176100
     17 C19          7.5860     1.1960     1.3620 ca         1 CJ2      -0.090400
     18 C21          7.5740     2.2750     2.2380 ca         1 CJ2      -0.077000
     19 F26          9.9460     4.8440     3.3300 f          1 CJ2      -0.207967
     20 F27          7.7080     5.1230     2.9630 f          1 CJ2      -0.207967
     21 F28          8.4270     3.7550     4.6440 f          1 CJ2      -0.207967
     22 N03          4.0520    -3.4980     0.9180 nc         1 CJ2      -0.411000
     23 N04          4.0630    -1.3830     1.0670 na         1 CJ2       0.595400
     24 N05          3.3320    -2.4410     1.0390 nd         1 CJ2      -0.299800
     25 N18          6.4420     0.4060     1.2090 ns         1 CJ2      -0.077100
     26 O13         -2.0520     0.0070     1.2050 os         1 CJ2      -0.303900
     27 O17          7.6560    -1.3800     0.6870 o          1 CJ2      -0.606100
     28 H1          -0.5420     0.0020    -0.9380 ha         1 CJ2       0.124000
     29 H2          -0.5340    -0.0060     3.3420 ha         1 CJ2       0.124000
     30 H3          -2.4100    -0.8800     3.0300 h1         1 CJ2      -0.000300
     31 H4          -3.7720     0.0120     2.3390 h1         1 CJ2      -0.000300
     32 H5          -2.4020     0.8890     3.0340 h1         1 CJ2      -0.000300
     33 H6           8.7480     0.0670    -0.0450 ha         1 CJ2       0.159000
     34 H7          10.7600     1.4630     0.2310 ha         1 CJ2       0.113000
     35 H8          10.7350     3.3690     1.7920 ha         1 CJ2       0.122000
     36 H10          3.9450     0.4200     2.1220 h1         1 CJ2       0.039200
     37 H11          3.9430     0.5830     0.3600 h1         1 CJ2       0.039200
     38 H12          1.9230    -0.0010    -0.9380 ha         1 CJ2       0.103000
     39 H13          1.9310    -0.0120     3.3330 ha         1 CJ2       0.103000
     40 H14          6.6790     2.5030     2.8050 ha         1 CJ2       0.113000
     41 H15          5.5340     0.8260     1.2540 hn         1 CJ2       0.178500
     42 H9           6.1120    -4.8850     0.8080 ho         1 CJ2       0.413000
     43 O15          6.4030    -3.9920     0.7270 oh         1 CJ2      -0.533300
@<TRIPOS>BOND
     1     1    14 ar  
     2     1    16 ar  
     3     1    28 1   
     4     2    15 ar  
     5     2    16 ar  
     6     2    29 1   
     7     3    26 1   
     8     3    30 1   
     9     3    31 1   
    10     3    32 1   
    11     4    11 1   
    12     4    25 1   
    13     4    27 2   
    14     5     6 ar  
    15     5    17 ar  
    16     5    33 1   
    17     6     8 ar  
    18     6    34 1   
    19     7     8 ar  
    20     7     9 1   
    21     7    18 ar  
    22     8    35 1   
    23     9    19 1   
    24     9    20 1   
    25     9    21 1   
    26    10    11 2   
    27    10    22 1   
    28    10    43 1   
    29    11    23 1   
    30    12    13 1   
    31    12    23 1   
    32    12    36 1   
    33    12    37 1   
    34    13    14 ar  
    35    13    15 ar  
    36    14    38 1   
    37    15    39 1   
    38    16    26 1   
    39    17    18 ar  
    40    17    25 1   
    41    18    40 1   
    42    22    24 2   
    43    23    24 1   
    44    25    41 1   
    45    42    43 1   
@<TRIPOS>SUBSTRUCTURE
     1 CJ2         1 TEMP              0 ****  ****    0 ROOT
