@<TRIPOS>MOLECULE
molecule
   43    45     1     0     0
SMALL
bcc


@<TRIPOS>ATOM
      1 C10          0.0000     0.0000     0.0000 ca         1 CJ2      -0.190000
      2 C11          0.0040    -0.0030     2.4020 ca         1 CJ2      -0.190000
      3 C14         -2.6980     0.0070     2.4790 c3         1 CJ2       0.126700
      4 C16          6.5630    -0.9090     0.9410 c          1 CJ2       0.717700
      5 C20          8.7360     0.9050     0.6400 ca         1 CJ2      -0.104000
      6 C22          9.8630     1.6880     0.7960 ca         1 CJ2      -0.116000
      7 C23          8.7070     3.0470     2.3960 ca         1 CJ2      -0.164300
      8 C24          9.8490     2.7570     1.6720 ca         1 CJ2      -0.100000
      9 C25          8.6970     4.2130     3.3510 c3         1 CJ2       0.675200
     10 C01          5.3430    -3.1560     0.8590 cc         1 CJ2       0.590600
     11 C02          5.3780    -1.7720     0.9550 cd         1 CJ2      -0.358200
     12 C06          3.5810    -0.0060     1.1950 c3         1 CJ2       0.109600
     13 C07          2.0740     0.0000     1.1970 ca         1 CJ2      -0.164300
     14 C08          1.3820     0.0000     0.0000 ca         1 CJ2      -0.055500
     15 C09          1.3860    -0.0090     2.3970 ca         1 CJ2      -0.055500
     16 C12         -0.6930     0.0010     1.2020 ca         1 CJ2       0.166100
     17 C19          7.5860     1.1960     1.3620 ca         1 CJ2       0.050600
     18 C21          7.5740     2.2750     2.2380 ca         1 CJ2      -0.118000
     19 F26          9.9460     4.8440     3.3300 f          1 CJ2      -0.223633
     20 F27          7.7080     5.1230     2.9630 f          1 CJ2      -0.223633
     21 F28          8.4270     3.7550     4.6440 f          1 CJ2      -0.223633
     22 N03          4.0520    -3.4980     0.9180 nc         1 CJ2      -0.438000
     23 N04          4.0630    -1.3830     1.0670 na         1 CJ2       0.133400
     24 N05          3.3320    -2.4410     1.0390 nd         1 CJ2      -0.133800
     25 N18          6.4420     0.4060     1.2090 ns         1 CJ2      -0.490100
     26 O13         -2.0520     0.0070     1.2050 os         1 CJ2      -0.323900
     27 O17          7.6560    -1.3800     0.6870 o          1 CJ2      -0.562100
     28 H1          -0.5420     0.0020    -0.9380 ha         1 CJ2       0.146500
     29 H2          -0.5340    -0.0060     3.3420 ha         1 CJ2       0.146500
     30 H3          -2.4100    -0.8800     3.0300 h1         1 CJ2       0.044700
     31 H4          -3.7720     0.0120     2.3390 h1         1 CJ2       0.044700
     32 H5          -2.4020     0.8890     3.0340 h1         1 CJ2       0.044700
     33 H6           8.7480     0.0670    -0.0450 ha         1 CJ2       0.181000
     34 H7          10.7600     1.4630     0.2310 ha         1 CJ2       0.145000
     35 H8          10.7350     3.3690     1.7920 ha         1 CJ2       0.151000
     36 H10          3.9450     0.4200     2.1220 h1         1 CJ2       0.070200
     37 H11          3.9430     0.5830     0.3600 h1         1 CJ2       0.070200
     38 H12          1.9230    -0.0010    -0.9380 ha         1 CJ2       0.136000
     39 H13          1.9310    -0.0120     3.3330 ha         1 CJ2       0.136000
     40 H14          6.6790     2.5030     2.8050 ha         1 CJ2       0.140000
     41 H15          5.5340     0.8260     1.2540 hn         1 CJ2       0.323500
     42 H9           6.1120    -4.8850     0.8080 ho         1 CJ2       0.439000
     43 O15          6.4030    -3.9920     0.7270 oh         1 CJ2      -0.554300
@<TRIPOS>BOND
     1    22    24 2
     2    22    10 1
     3    24    23 1
     4    43    10 1
     5    10    11 2
     6    23    11 1
     7    23    12 1
     8    11     4 1
     9    12    13 1
    10    14    13 ar
    11    14     1 ar
    12    13    15 ar
    13     1    16 ar
    14     4    25 1
    15     4    27 2
    16    25    17 1
    17    15     2 ar
    18    16     2 ar
    19    16    26 1
    20     3    26 1
    21    17     5 ar
    22    17    18 ar
    23     5     6 ar
    24    18     7 ar
    25     6     8 ar
    26     7     8 ar
    27     7     9 1
    28    20     9 1
    29     9    19 1
    30     9    21 1
    31     1    28 1
    32     2    29 1
    33     3    30 1
    34     3    31 1
    35     3    32 1
    36     5    33 1
    37     6    34 1
    38     8    35 1
    39    12    36 1
    40    12    37 1
    41    14    38 1
    42    15    39 1
    43    18    40 1
    44    25    41 1
    45    43    42 1
@<TRIPOS>SUBSTRUCTURE
     1 CJ2         1 TEMP              0 ****  ****    0 ROOT
