@<TRIPOS>MOLECULE
CJ4
   58    61     1     0     0
SMALL
bcc


@<TRIPOS>ATOM
      1 C01          0.0000     0.0000     0.0000 c3         1 CJ4       0.179100
      2 C03          1.9950     0.0000     1.3720 c3         1 CJ4       0.146800
      3 C04          3.5250     0.0000     1.3300 c3         1 CJ4      -0.053400
      4 C05          4.0730     0.0000     2.7600 c3         1 CJ4       0.170800
      5 C07          6.2690     1.2690     2.7000 c3         1 CJ4       0.210100
      6 C08          6.2290    -1.1990     2.7020 ca         1 CJ4       0.744900
      7 C10          6.1770    -3.5050     2.6940 ca         1 CJ4       0.478200
      8 C11          7.5580    -3.5300     2.6560 ca         1 CJ4      -0.200700
      9 C13          8.2470    -2.3130     2.6480 ca         1 CJ4       0.541200
     10 C16         10.1310    -2.4930     1.2340 cy         1 CJ4       0.150800
     11 C17         11.1420    -1.3750     1.5440 cy         1 CJ4      -0.172700
     12 C18         10.1390    -0.8990     2.6100 cy         1 CJ4       0.150800
     13 C19         11.3320    -0.3990     0.4120 c          1 CJ4       0.584100
     14 C22         12.3750     1.5810    -0.5530 c3         1 CJ4       0.171200
     15 C23         13.3790     2.6290    -0.1480 cc         1 CJ4      -0.475300
     16 C24         14.7040     2.6150    -0.4130 cd         1 CJ4       0.083600
     17 C26         14.3130     4.4340     0.7010 cc         1 CJ4      -0.243300
     18 C27         14.3510     5.6600     1.3930 cc         1 CJ4      -0.020000
     19 C28         13.1990     6.1710     1.9070 cd         1 CJ4      -0.132000
     20 C29         11.9930     5.4710     1.7420 cd         1 CJ4      -0.078000
     21 C30         11.9710     4.3000     1.0710 cc         1 CJ4      -0.288300
     22 F12          8.2270    -4.7030     2.6290 f          1 CJ4      -0.111900
     23 N02          1.4690     0.0000     0.0000 n7         1 CJ4      -0.583200
     24 N06          5.5370     0.0010     2.7200 nh         1 CJ4      -0.446300
     25 N09          5.5510    -2.3360     2.7150 nb         1 CJ4      -0.689000
     26 N14          7.5530    -1.1800     2.6670 nb         1 CJ4      -0.714000
     27 N15          9.6330    -2.2890     2.6120 nn         1 CJ4      -0.495300
     28 N21         12.1900     0.6320     0.5470 ns         1 CJ4      -0.204900
     29 N25         15.2550     3.7150     0.1070 nd         1 CJ4      -0.249600
     30 N31         13.1200     3.7770     0.5510 na         1 CJ4       0.640700
     31 O20         10.7130    -0.5410    -0.6220 o          1 CJ4      -0.645100
     32 H1          -0.3610    -0.8830     0.5130 h1         1 CJ4      -0.001967
     33 H2          -0.3610     0.8860     0.5090 h1         1 CJ4      -0.001967
     34 H3          -0.3610    -0.0020    -1.0210 h1         1 CJ4      -0.001967
     35 H4           1.6480     0.8850     1.8920 h1         1 CJ4       0.006700
     36 H5           1.6480    -0.8850     1.8920 h1         1 CJ4       0.006700
     37 H6           3.8720    -0.8850     0.8110 hc         1 CJ4       0.027700
     38 H7           3.8720     0.8840     0.8100 hc         1 CJ4       0.027700
     39 H8           3.7260    -0.8840     3.2800 h1         1 CJ4       0.032700
     40 H9           3.7260     0.8850     3.2800 h1         1 CJ4       0.032700
     41 H10          6.8230     1.3520     1.7720 h1         1 CJ4       0.009700
     42 H11          5.5690     2.0920     2.7770 h1         1 CJ4       0.009700
     43 H12          6.9580     1.3020     3.5350 h1         1 CJ4       0.009700
     44 H13          5.6120    -4.4290     2.7030 h4         1 CJ4      -0.004900
     45 H14          9.4090    -2.2160     0.4750 h1         1 CJ4       0.049200
     46 H15         10.5970    -3.4610     1.0890 h1         1 CJ4       0.049200
     47 H16         12.0640    -1.7500     1.9720 hc         1 CJ4       0.064700
     48 H17          9.4200    -0.1840     2.2290 h1         1 CJ4       0.049200
     49 H18         10.6120    -0.6170     3.5430 h1         1 CJ4       0.049200
     50 H19         11.4290     2.0570    -0.7820 h1         1 CJ4       0.029200
     51 H20         12.7360     1.0540    -1.4270 h1         1 CJ4       0.029200
     52 H21         15.2320     1.8410    -0.9580 h4         1 CJ4       0.143000
     53 H22         15.2870     6.1910     1.5140 ha         1 CJ4       0.126000
     54 H23         13.2140     7.1110     2.4460 ha         1 CJ4       0.118000
     55 H24         11.0750     5.8760     2.1510 ha         1 CJ4       0.117000
     56 H25         11.0350     3.7690     0.9490 h4         1 CJ4       0.142000
     57 H26          1.8030     0.8090    -0.4850 hn         1 CJ4       0.249800
     58 H28         12.7220     0.7320     1.3890 hn         1 CJ4       0.180500
@<TRIPOS>BOND
     1     1    23 1   
     2     1    32 1   
     3     1    33 1   
     4     1    34 1   
     5     2     3 1   
     6     2    23 1   
     7     2    35 1   
     8     2    36 1   
     9     3     4 1   
    10     3    37 1   
    11     3    38 1   
    12     4    24 1   
    13     4    39 1   
    14     4    40 1   
    15     5    24 1   
    16     5    41 1   
    17     5    42 1   
    18     5    43 1   
    19     6    24 1   
    20     6    25 ar  
    21     6    26 ar  
    22     7     8 ar  
    23     7    25 ar  
    24     7    44 1   
    25     8     9 ar  
    26     8    22 1   
    27     9    26 ar  
    28     9    27 1   
    29    10    11 1   
    30    10    27 1   
    31    10    45 1   
    32    10    46 1   
    33    11    12 1   
    34    11    13 1   
    35    11    47 1   
    36    12    27 1   
    37    12    48 1   
    38    12    49 1   
    39    13    28 1   
    40    13    31 2   
    41    14    15 1   
    42    14    28 1   
    43    14    50 1   
    44    14    51 1   
    45    15    16 2   
    46    15    30 1   
    47    16    29 1   
    48    16    52 1   
    49    17    18 1   
    50    17    29 2   
    51    17    30 1   
    52    18    19 2   
    53    18    53 1   
    54    19    20 1   
    55    19    54 1   
    56    20    21 2   
    57    20    55 1   
    58    21    30 1   
    59    21    56 1   
    60    23    57 1   
    61    28    58 1   
@<TRIPOS>SUBSTRUCTURE
     1 CJ4         1 TEMP              0 ****  ****    0 ROOT
