@<TRIPOS>MOLECULE
molecule
   58    61     1     0     0
SMALL
bcc


@<TRIPOS>ATOM
      1 C01          0.0000     0.0000     0.0000 c3         1 CJ4       0.147100
      2 C03          1.9950     0.0000     1.3720 c3         1 CJ4       0.156800
      3 C04          3.5250     0.0000     1.3300 c3         1 CJ4      -0.106400
      4 C05          4.0730     0.0000     2.7600 c3         1 CJ4       0.244800
      5 C07          6.2690     1.2690     2.7000 c3         1 CJ4       0.240100
      6 C08          6.2290    -1.1990     2.7020 ca         1 CJ4       0.951900
      7 C10          6.1770    -3.5050     2.6940 ca         1 CJ4       0.477200
      8 C11          7.5580    -3.5300     2.6560 ca         1 CJ4      -0.172700
      9 C13          8.2470    -2.3130     2.6480 ca         1 CJ4       0.626200
     10 C16         10.1310    -2.4930     1.2340 cy         1 CJ4       0.148800
     11 C17         11.1420    -1.3750     1.5440 cy         1 CJ4      -0.196700
     12 C18         10.1390    -0.8990     2.6100 cy         1 CJ4       0.148800
     13 C19         11.3320    -0.3990     0.4120 c          1 CJ4       0.665100
     14 C22         12.3750     1.5810    -0.5530 c3         1 CJ4       0.197200
     15 C23         13.3790     2.6290    -0.1480 cc         1 CJ4      -0.248300
     16 C24         14.7040     2.6150    -0.4130 cd         1 CJ4       0.062600
     17 C26         14.3130     4.4340     0.7010 cd         1 CJ4      -0.017300
     18 C27         14.3510     5.6600     1.3930 cd         1 CJ4      -0.085000
     19 C28         13.1990     6.1710     1.9070 cc         1 CJ4      -0.125000
     20 C29         11.9930     5.4710     1.7420 cc         1 CJ4      -0.158000
     21 C30         11.9710     4.3000     1.0710 cd         1 CJ4      -0.082300
     22 F12          8.2270    -4.7030     2.6290 f          1 CJ4      -0.126900
     23 N02          1.4690     0.0000     0.0000 n7         1 CJ4      -0.817200
     24 N06          5.5370     0.0010     2.7200 nh         1 CJ4      -0.807300
     25 N09          5.5510    -2.3360     2.7150 nb         1 CJ4      -0.788000
     26 N14          7.5530    -1.1800     2.6670 nb         1 CJ4      -0.823000
     27 N15          9.6330    -2.2890     2.6120 nn         1 CJ4      -0.651300
     28 N21         12.1900     0.6320     0.5470 ns         1 CJ4      -0.587900
     29 N25         15.2550     3.7150     0.1070 nc         1 CJ4      -0.315600
     30 N31         13.1200     3.7770     0.5510 na         1 CJ4       0.054700
     31 O20         10.7130    -0.5410    -0.6220 o          1 CJ4      -0.607100
     32 H1          -0.3610    -0.8830     0.5130 h1         1 CJ4       0.030700
     33 H2          -0.3610     0.8860     0.5090 h1         1 CJ4       0.030700
     34 H3          -0.3610    -0.0020    -1.0210 h1         1 CJ4       0.030700
     35 H4           1.6480     0.8850     1.8920 h1         1 CJ4       0.031200
     36 H5           1.6480    -0.8850     1.8920 h1         1 CJ4       0.031200
     37 H6           3.8720    -0.8850     0.8110 hc         1 CJ4       0.057700
     38 H7           3.8720     0.8840     0.8100 hc         1 CJ4       0.057700
     39 H8           3.7260    -0.8840     3.2800 h1         1 CJ4       0.059700
     40 H9           3.7260     0.8850     3.2800 h1         1 CJ4       0.059700
     41 H10          6.8230     1.3520     1.7720 h1         1 CJ4       0.040033
     42 H11          5.5690     2.0920     2.7770 h1         1 CJ4       0.040033
     43 H12          6.9580     1.3020     3.5350 h1         1 CJ4       0.040033
     44 H13          5.6120    -4.4290     2.7030 h4         1 CJ4       0.042100
     45 H14          9.4090    -2.2160     0.4750 h1         1 CJ4       0.084450
     46 H15         10.5970    -3.4610     1.0890 h1         1 CJ4       0.084450
     47 H16         12.0640    -1.7500     1.9720 hc         1 CJ4       0.093700
     48 H17          9.4200    -0.1840     2.2290 h1         1 CJ4       0.084450
     49 H18         10.6120    -0.6170     3.5430 h1         1 CJ4       0.084450
     50 H19         11.4290     2.0570    -0.7820 h1         1 CJ4       0.064700
     51 H20         12.7360     1.0540    -1.4270 h1         1 CJ4       0.064700
     52 H21         15.2320     1.8410    -0.9580 h4         1 CJ4       0.187000
     53 H22         15.2870     6.1910     1.5140 ha         1 CJ4       0.163000
     54 H23         13.2140     7.1110     2.4460 ha         1 CJ4       0.145000
     55 H24         11.0750     5.8760     2.1510 ha         1 CJ4       0.150000
     56 H25         11.0350     3.7690     0.9490 h4         1 CJ4       0.164000
     57 H26          1.8030     0.8090    -0.4850 hn         1 CJ4       0.350800
     58 H28         12.7220     0.7320     1.3890 hn         1 CJ4       0.321500
@<TRIPOS>BOND
     1     4     3 1
     2     4    24 1
     3     3     2 1
     4    23     2 1
     5    23     1 1
     6    24     5 1
     7    24     6 1
     8    25     6 ar
     9    25     7 ar
    10     6    26 ar
    11     7     8 ar
    12    26     9 ar
    13     8     9 ar
    14     8    22 1
    15     9    27 1
    16    27    12 1
    17    27    10 1
    18    12    11 1
    19    10    11 1
    20    11    13 1
    21    20    19 1
    22    20    21 2
    23    19    18 2
    24    21    30 1
    25    13    31 2
    26    13    28 1
    27    18    17 1
    28    28    14 1
    29    30    17 1
    30    30    15 1
    31    17    29 2
    32    15    14 1
    33    15    16 2
    34    29    16 1
    35     1    32 1
    36     1    33 1
    37     1    34 1
    38     2    35 1
    39     2    36 1
    40     3    37 1
    41     3    38 1
    42     4    39 1
    43     4    40 1
    44     5    41 1
    45     5    42 1
    46     5    43 1
    47     7    44 1
    48    10    45 1
    49    10    46 1
    50    11    47 1
    51    12    48 1
    52    12    49 1
    53    14    50 1
    54    14    51 1
    55    16    52 1
    56    18    53 1
    57    19    54 1
    58    20    55 1
    59    21    56 1
    60    23    57 1
    61    28    58 1
@<TRIPOS>SUBSTRUCTURE
     1 CJ4         1 TEMP              0 ****  ****    0 ROOT
