@<TRIPOS>MOLECULE
CJ5
   63    67     1     0     0
SMALL
bcc


@<TRIPOS>ATOM
      1 O01          0.0000     0.0000     0.0000 o          1 CJ5      -0.684100
      2 C02          1.2160     0.0000     0.0000 c          1 CJ5       0.554100
      3 N03          1.8890     0.0000     1.1680 ns         1 CJ5      -0.055100
      4 C04          1.1930    -0.1130     2.3770 ca         1 CJ5      -0.075400
      5 C05          0.0350    -0.8770     2.4430 ca         1 CJ5      -0.070000
      6 C06         -0.6490    -0.9890     3.6380 ca         1 CJ5      -0.086000
      7 C07         -0.1810    -0.3410     4.7670 ca         1 CJ5      -0.064000
      8 C08          0.9710     0.4200     4.7040 ca         1 CJ5      -0.193300
      9 C09          1.4770     1.1230     5.9360 c3         1 CJ5       0.640200
     10 F10          0.6200     0.8600     7.0100 f          1 CJ5      -0.208967
     11 F11          2.7620     0.6630     6.2430 f          1 CJ5      -0.208967
     12 F12          1.5200     2.5030     5.7020 f          1 CJ5      -0.208967
     13 C13          1.6630     0.5310     3.5130 ca         1 CJ5      -0.080000
     14 N14          1.8900    -0.0040    -1.1670 ns         1 CJ5      -0.043100
     15 C15          1.1940    -0.1080    -2.3790 ca         1 CJ5      -0.104400
     16 C16         -0.0440     0.5030    -2.5220 ca         1 CJ5      -0.096500
     17 C17         -0.7320     0.4010    -3.7150 ca         1 CJ5      -0.104500
     18 C18          1.7440    -0.8170    -3.4370 ca         1 CJ5      -0.096500
     19 C19          1.0580    -0.9200    -4.6310 ca         1 CJ5      -0.104500
     20 C20         -0.1830    -0.3130    -4.7720 ca         1 CJ5      -0.008400
     21 N21         -0.8790    -0.4170    -5.9830 nu         1 CJ5      -0.285300
     22 C22         -0.7740    -1.5680    -6.7440 ca         1 CJ5       0.736900
     23 N23         -0.1080    -2.6060    -6.2600 nb         1 CJ5      -0.733000
     24 C24          0.0120    -3.7260    -6.9580 ca         1 CJ5       0.525200
     25 C25         -0.5670    -3.8070    -8.2090 ca         1 CJ5      -0.479600
     26 C26         -1.2620    -2.6980    -8.6950 ca         1 CJ5       0.564200
     27 N27         -1.8590    -2.7340    -9.9450 nu         1 CJ5      -0.354600
     28 C28         -2.4510    -1.5780   -10.4730 cc         1 CJ5       0.454200
     29 N29         -3.1590    -1.5100   -11.5750 nd         1 CJ5      -0.713800
     30 N30         -3.5670    -0.1810   -11.7500 na         1 CJ5       0.459400
     31 C31         -3.0820     0.5450   -10.7210 cd         1 CJ5      -0.236600
     32 C32         -3.2800     2.0220   -10.5050 c3         1 CJ5       0.039600
     33 C33         -3.3080     2.7530   -11.8590 c3         1 CJ5      -0.028900
     34 C34         -4.6900     3.4290   -11.9680 c3         1 CJ5      -0.025900
     35 C35         -5.1510     3.5880   -10.4980 c3         1 CJ5      -0.025900
     36 C36         -4.6460     2.2800    -9.8370 c3         1 CJ5      -0.028900
     37 C37         -2.3930    -0.2920    -9.9130 cc         1 CJ5      -0.339300
     38 N38         -1.3490    -1.6090    -7.9370 nb         1 CJ5      -0.744000
     39 H031         2.8890     0.0520     1.1700 hn         1 CJ5       0.163500
     40 H051        -0.3310    -1.3840     1.5590 ha         1 CJ5       0.147000
     41 H061        -1.5530    -1.5840     3.6900 ha         1 CJ5       0.112000
     42 H071        -0.7190    -0.4290     5.7030 ha         1 CJ5       0.121000
     43 H131         2.5660     1.1270     3.4640 ha         1 CJ5       0.115000
     44 H141         2.8860     0.0990    -1.1690 hn         1 CJ5       0.159500
     45 H161        -0.4720     1.0600    -1.6970 ha         1 CJ5       0.125000
     46 H171        -1.6990     0.8760    -3.8260 ha         1 CJ5       0.122500
     47 H181         2.7120    -1.2910    -3.3260 ha         1 CJ5       0.125000
     48 H191         1.4870    -1.4750    -5.4570 ha         1 CJ5       0.122500
     49 H211        -1.4290     0.3520    -6.3110 hn         1 CJ5       0.291800
     50 H241         0.5590    -4.5680    -6.5520 h4         1 CJ5      -0.020900
     51 H251        -0.4830    -4.7100    -8.8010 ha         1 CJ5       0.128000
     52 H271        -1.8810    -3.5890   -10.4650 hn         1 CJ5       0.289800
     53 H301        -4.1210     0.1690   -12.5060 hn         1 CJ5       0.148700
     54 H321        -2.4860     2.4220    -9.8870 hc         1 CJ5       0.040700
     55 H332        -3.1800     2.0420   -12.6660 hc         1 CJ5       0.019200
     56 H331        -2.5260     3.5030   -11.8900 hc         1 CJ5       0.019200
     57 H341        -4.5990     4.3990   -12.4420 hc         1 CJ5       0.016950
     58 H342        -5.3780     2.7960   -12.5140 hc         1 CJ5       0.016950
     59 H351        -4.6830     4.4520   -10.0420 hc         1 CJ5       0.016950
     60 H352        -6.2310     3.6520   -10.4420 hc         1 CJ5       0.016950
     61 H362        -4.5240     2.4190    -8.7700 hc         1 CJ5       0.019200
     62 H361        -5.3280     1.4640   -10.0450 hc         1 CJ5       0.019200
     63 H371        -1.8800    -0.0180    -8.9980 ha         1 CJ5       0.179000
@<TRIPOS>BOND
     1     1     2 2   
     2     2     3 1   
     3     2    14 1   
     4     3     4 1   
     5     3    39 1   
     6     4     5 ar  
     7     4    13 ar  
     8     5     6 ar  
     9     5    40 1   
    10     6     7 ar  
    11     6    41 1   
    12     7     8 ar  
    13     7    42 1   
    14     8     9 1   
    15     8    13 ar  
    16     9    10 1   
    17     9    11 1   
    18     9    12 1   
    19    13    43 1   
    20    14    15 1   
    21    14    44 1   
    22    15    16 ar  
    23    15    18 ar  
    24    16    17 ar  
    25    16    45 1   
    26    17    20 ar  
    27    17    46 1   
    28    18    19 ar  
    29    18    47 1   
    30    19    20 ar  
    31    19    48 1   
    32    20    21 1   
    33    21    22 1   
    34    21    49 1   
    35    22    23 ar  
    36    22    38 ar  
    37    23    24 ar  
    38    24    25 ar  
    39    24    50 1   
    40    25    26 ar  
    41    25    51 1   
    42    26    27 1   
    43    26    38 ar  
    44    27    28 1   
    45    27    52 1   
    46    28    29 2   
    47    28    37 1   
    48    29    30 1   
    49    30    31 1   
    50    30    53 1   
    51    31    32 1   
    52    31    37 2   
    53    32    33 1   
    54    32    36 1   
    55    32    54 1   
    56    33    34 1   
    57    33    55 1   
    58    33    56 1   
    59    34    35 1   
    60    34    57 1   
    61    34    58 1   
    62    35    36 1   
    63    35    59 1   
    64    35    60 1   
    65    36    61 1   
    66    36    62 1   
    67    37    63 1   
@<TRIPOS>SUBSTRUCTURE
     1 CJ5         1 TEMP              0 ****  ****    0 ROOT
