@<TRIPOS>MOLECULE
molecule
   44    47     1     0     0
SMALL
bcc


@<TRIPOS>ATOM
      1 C5           0.0000     0.0000     0.0000 ca         1 CJ7      -0.097000
      2 C4           1.3800     0.0000     0.0000 ca         1 CJ7       0.105900
      3 N4          -3.2470     0.0150     0.8580 nb         1 CJ7      -0.216000
      4 C3           2.0780     0.0000     1.2000 ca         1 CJ7      -0.127000
      5 C2           1.4040     0.0020     2.4020 ca         1 CJ7      -0.126000
      6 C1           0.0130     0.0030     2.4220 ca         1 CJ7      -0.001200
      7 N2          -9.4400     0.0470     1.3180 n3         1 CJ7      -0.724600
      8 N3          -4.3860     0.0190     1.4620 nb         1 CJ7      -0.407000
      9 N1          -3.3830     0.0130     3.5470 nb         1 CJ7      -0.728000
     10 F            2.0540    -0.0010    -1.1710 f          1 CJ7      -0.135900
     11 C6          -0.6920     0.0030     1.2090 cp         1 CJ7      -0.154500
     12 C7          -2.1230     0.0080     1.5600 cp         1 CJ7       0.223500
     13 C8          -2.1860     0.0070     2.9680 ca         1 CJ7       0.453500
     14 N           -0.9040     0.0030     3.4620 na         1 CJ7      -0.170000
     15 C9          -4.4700     0.0180     2.7880 ca         1 CJ7       0.752300
     16 S           -6.0580     0.0260     3.5520 ss         1 CJ7      -0.245400
     17 C10         -7.1140     0.0330     2.0830 c3         1 CJ7      -0.013300
     18 C11         -8.5830     0.0400     2.5110 c3         1 CJ7       0.173800
     19 C12        -10.8460    -0.1840     1.6790 c3         1 CJ7       0.162300
     20 C13        -11.6850    -0.3170     0.4060 c3         1 CJ7      -0.077900
     21 C14        -11.5550     0.9660    -0.4210 c3         1 CJ7      -0.083400
     22 C15        -10.0770     1.2100    -0.7410 c3         1 CJ7      -0.077900
     23 C16         -9.2850     1.2980     0.5640 c3         1 CJ7       0.162300
     24 H1          -0.5430     0.0000    -0.9370 ha         1 CJ7       0.164000
     25 H2           3.1620    -0.0000     1.1920 ha         1 CJ7       0.152000
     26 H3           1.9580     0.0020     3.3330 ha         1 CJ7       0.141000
     27 H5           0.0150     0.8950     5.1160 h1         1 CJ7       0.058367
     28 H6           0.0360    -0.8740     5.1120 h1         1 CJ7       0.058367
     29 H7          -1.4620    -0.0080     5.4780 h1         1 CJ7       0.058367
     30 H8          -6.9060     0.9170     1.4920 h1         1 CJ7       0.088200
     31 H9          -6.9150    -0.8520     1.4900 h1         1 CJ7       0.088200
     32 H10         -8.7820     0.9250     3.1040 h1         1 CJ7       0.041700
     33 H11         -8.7910    -0.8440     3.1010 h1         1 CJ7       0.041700
     34 H12        -10.9230    -1.0970     2.2580 h1         1 CJ7       0.034700
     35 H13        -11.2090     0.6520     2.2640 h1         1 CJ7       0.034700
     36 H14        -12.7240    -0.4690     0.6740 hc         1 CJ7       0.049700
     37 H15        -11.3290    -1.1580    -0.1750 hc         1 CJ7       0.049700
     38 H16        -11.9440     1.8020     0.1470 hc         1 CJ7       0.040700
     39 H17        -12.1120     0.8580    -1.3440 hc         1 CJ7       0.040700
     40 H18         -9.9760     2.1400    -1.2880 hc         1 CJ7       0.049700
     41 H19         -9.6980     0.3900    -1.3390 hc         1 CJ7       0.049700
     42 H20         -8.2360     1.4540     0.3380 h1         1 CJ7       0.034700
     43 H21         -9.6580     2.1240     1.1570 h1         1 CJ7       0.034700
     44 C           -0.5560     0.0040     4.8840 c3         1 CJ7       0.038600
@<TRIPOS>BOND
     1    10     2 1
     2     2     1 ar
     3     2     4 ar
     4     1    11 ar
     5     3     8 ar
     6     3    12 ar
     7     4     5 ar
     8    11    12 1
     9    11     6 ar
    10     8    15 ar
    11    12    13 ar
    12     5     6 ar
    13     6    14 1
    14    15     9 ar
    15    15    16 1
    16    13    14 1
    17    13     9 ar
    18    14    44 1
    19    16    17 1
    20    18    17 1
    21    18     7 1
    22     7    19 1
    23     7    23 1
    24    19    20 1
    25    23    22 1
    26    20    21 1
    27    22    21 1
    28     1    24 1
    29     4    25 1
    30     5    26 1
    31    44    27 1
    32    44    28 1
    33    44    29 1
    34    17    30 1
    35    17    31 1
    36    18    32 1
    37    18    33 1
    38    19    34 1
    39    19    35 1
    40    20    36 1
    41    20    37 1
    42    21    38 1
    43    21    39 1
    44    22    40 1
    45    22    41 1
    46    23    42 1
    47    23    43 1
@<TRIPOS>SUBSTRUCTURE
     1 CJ7         1 TEMP              0 ****  ****    0 ROOT
