@<TRIPOS>MOLECULE
CJ8
   36    35     1     0     0
SMALL
bcc


@<TRIPOS>ATOM
      1 CAC          0.0000     0.0000     0.0000 c3         1 CJ8       0.013900
      2 CAA          1.5290     0.0000     0.0000 c3         1 CJ8      -0.041400
      3 CAB          2.0400     0.0000     1.4420 c3         1 CJ8       0.050000
      4 NAD          3.5050    -0.0000     1.4430 ns         1 CJ8      -0.211400
      5 CAE          4.1790     0.0000     2.6100 c          1 CJ8       0.541600
      6 OAN          3.5720     0.0000     3.6600 o          1 CJ8      -0.603600
      7 CAF          5.6860     0.0000     2.6100 c3         1 CJ8       0.125600
      8 OAM          6.1620    -0.1180     3.9520 oh         1 CJ8      -0.527800
      9 CAG          6.1950     1.3080     2.0000 c3         1 CJ8       0.125600
     10 OAP          5.6260     2.4140     2.7020 oh         1 CJ8      -0.527800
     11 CAH          7.6970     1.3610     2.1120 c          1 CJ8       0.541600
     12 OAO          8.2240     2.2060     2.8060 o          1 CJ8      -0.603600
     13 NAI          8.4550     0.4720     1.4410 ns         1 CJ8      -0.211400
     14 CAJ          9.9160     0.5240     1.5490 c3         1 CJ8       0.050000
     15 CAK         10.5310    -0.5870     0.6960 c3         1 CJ8      -0.041400
     16 CAL         12.0550    -0.5320     0.8100 c3         1 CJ8       0.013900
     17 H1          -0.3610    -0.8840     0.5120 hc         1 CJ8       0.005033
     18 H2          -0.3610    -0.0010    -1.0210 hc         1 CJ8       0.005033
     19 H3          -0.3610     0.8850     0.5100 hc         1 CJ8       0.005033
     20 H4           1.8900    -0.8840    -0.5110 hc         1 CJ8       0.011950
     21 H5           1.8900     0.8840    -0.5110 hc         1 CJ8       0.011950
     22 H6           1.6780    -0.8840     1.9530 h1         1 CJ8       0.029200
     23 H7           1.6790     0.8850     1.9530 h1         1 CJ8       0.029200
     24 H8           4.0050    -0.0380     0.5770 hn         1 CJ8       0.166500
     25 H9           6.0470    -0.8360     2.0240 h1         1 CJ8      -0.000300
     26 H10          6.1610    -1.0250     4.2070 ho         1 CJ8       0.389000
     27 H11          5.9090     1.3550     0.9570 h1         1 CJ8      -0.000300
     28 H12          5.6400     3.1780     2.1490 ho         1 CJ8       0.389000
     29 H13          8.0220    -0.2000     0.8390 hn         1 CJ8       0.166500
     30 H14         10.2700     1.4860     1.1990 h1         1 CJ8       0.029200
     31 H15         10.2060     0.3870     2.5840 h1         1 CJ8       0.029200
     32 H16         10.2410    -0.4500    -0.3390 hc         1 CJ8       0.011950
     33 H17         10.1770    -1.5490     1.0460 hc         1 CJ8       0.011950
     34 H18         12.4090     0.4310     0.4610 hc         1 CJ8       0.005033
     35 H19         12.3460    -0.6700     1.8440 hc         1 CJ8       0.005033
     36 H20         12.4910    -1.3180     0.2040 hc         1 CJ8       0.005033
@<TRIPOS>BOND
     1     1     2 1   
     2     1    17 1   
     3     1    18 1   
     4     1    19 1   
     5     2     3 1   
     6     2    20 1   
     7     2    21 1   
     8     3     4 1   
     9     3    22 1   
    10     3    23 1   
    11     4     5 1   
    12     4    24 1   
    13     5     6 2   
    14     5     7 1   
    15     7     8 1   
    16     7     9 1   
    17     7    25 1   
    18     8    26 1   
    19     9    10 1   
    20     9    11 1   
    21     9    27 1   
    22    10    28 1   
    23    11    12 2   
    24    11    13 1   
    25    13    14 1   
    26    13    29 1   
    27    14    15 1   
    28    14    30 1   
    29    14    31 1   
    30    15    16 1   
    31    15    32 1   
    32    15    33 1   
    33    16    34 1   
    34    16    35 1   
    35    16    36 1   
@<TRIPOS>SUBSTRUCTURE
     1 CJ8         1 TEMP              0 ****  ****    0 ROOT
