@<TRIPOS>MOLECULE
molecule
   36    35     1     0     0
SMALL
bcc


@<TRIPOS>ATOM
      1 CAC          0.0000     0.0000     0.0000 c3         1 CJ8      -0.088100
      2 CAA          1.5290     0.0000     0.0000 c3         1 CJ8      -0.103400
      3 CAB          2.0400     0.0000     1.4420 c3         1 CJ8       0.112000
      4 NAD          3.5050    -0.0000     1.4430 ns         1 CJ8      -0.595400
      5 CAE          4.1790     0.0000     2.6100 c          1 CJ8       0.631100
      6 OAN          3.5720     0.0000     3.6600 o          1 CJ8      -0.566100
      7 CAF          5.6860     0.0000     2.6100 c3         1 CJ8       0.089100
      8 OAM          6.1620    -0.1180     3.9520 oh         1 CJ8      -0.544800
      9 CAG          6.1950     1.3080     2.0000 c3         1 CJ8       0.089100
     10 OAP          5.6260     2.4140     2.7020 oh         1 CJ8      -0.544800
     11 CAH          7.6970     1.3610     2.1120 c          1 CJ8       0.631100
     12 OAO          8.2240     2.2060     2.8060 o          1 CJ8      -0.566100
     13 NAI          8.4550     0.4720     1.4410 ns         1 CJ8      -0.595400
     14 CAJ          9.9160     0.5240     1.5490 c3         1 CJ8       0.112000
     15 CAK         10.5310    -0.5870     0.6960 c3         1 CJ8      -0.103400
     16 CAL         12.0550    -0.5320     0.8100 c3         1 CJ8      -0.088100
     17 H1          -0.3610    -0.8840     0.5120 hc         1 CJ8       0.039033
     18 H2          -0.3610    -0.0010    -1.0210 hc         1 CJ8       0.039033
     19 H3          -0.3610     0.8850     0.5100 hc         1 CJ8       0.039033
     20 H4           1.8900    -0.8840    -0.5110 hc         1 CJ8       0.042200
     21 H5           1.8900     0.8840    -0.5110 hc         1 CJ8       0.042200
     22 H6           1.6780    -0.8840     1.9530 h1         1 CJ8       0.056700
     23 H7           1.6790     0.8850     1.9530 h1         1 CJ8       0.056700
     24 H8           4.0050    -0.0380     0.5770 hn         1 CJ8       0.303500
     25 H9           6.0470    -0.8360     2.0240 h1         1 CJ8       0.038700
     26 H10          6.1610    -1.0250     4.2070 ho         1 CJ8       0.408000
     27 H11          5.9090     1.3550     0.9570 h1         1 CJ8       0.038700
     28 H12          5.6400     3.1780     2.1490 ho         1 CJ8       0.408000
     29 H13          8.0220    -0.2000     0.8390 hn         1 CJ8       0.303500
     30 H14         10.2700     1.4860     1.1990 h1         1 CJ8       0.056700
     31 H15         10.2060     0.3870     2.5840 h1         1 CJ8       0.056700
     32 H16         10.2410    -0.4500    -0.3390 hc         1 CJ8       0.042200
     33 H17         10.1770    -1.5490     1.0460 hc         1 CJ8       0.042200
     34 H18         12.4090     0.4310     0.4610 hc         1 CJ8       0.039033
     35 H19         12.3460    -0.6700     1.8440 hc         1 CJ8       0.039033
     36 H20         12.4910    -1.3180     0.2040 hc         1 CJ8       0.039033
@<TRIPOS>BOND
     1    10     9 1
     2    13    14 1
     3    13    11 1
     4     9    11 1
     5     9     7 1
     6    15    14 1
     7    15    16 1
     8     6     5 2
     9    11    12 2
    10     3     4 1
    11     3     2 1
    12     8     7 1
    13     5     4 1
    14     5     7 1
    15     1     2 1
    16     1    17 1
    17     1    18 1
    18     1    19 1
    19     2    20 1
    20     2    21 1
    21     3    22 1
    22     3    23 1
    23     4    24 1
    24     7    25 1
    25     8    26 1
    26     9    27 1
    27    10    28 1
    28    13    29 1
    29    14    30 1
    30    14    31 1
    31    15    32 1
    32    15    33 1
    33    16    34 1
    34    16    35 1
    35    16    36 1
@<TRIPOS>SUBSTRUCTURE
     1 CJ8         1 TEMP              0 ****  ****    0 ROOT
