@<TRIPOS>MOLECULE
CJB
   33    34     1     0     0
SMALL
bcc


@<TRIPOS>ATOM
      1 N1           0.0000     0.0000     0.0000 n          1 CJB       0.067000
      2 O2           1.9440     0.0000    -1.0590 o          1 CJB      -0.698500
      3 C2           1.3450     0.0000     0.0000 c          1 CJB       0.594500
      4 N3           2.0370     0.0000     1.1540 ns         1 CJB      -0.123500
      5 C4           1.3890     0.0000     2.3350 c          1 CJB       0.613700
      6 O4           2.0140     0.0010     3.3810 o          1 CJB      -0.659500
      7 C5          -0.0270     0.0010     2.3500 cc         1 CJB      -0.300200
      8 C6          -0.6970     0.0010     1.1780 cd         1 CJB      -0.083400
      9 C1'         -0.7270     0.0060    -1.2720 c3         1 CJB       0.209500
     10 O5'         -1.6340     1.1100    -1.2980 os         1 CJB      -0.398600
     11 C5'         -2.3790     1.2250    -2.5120 c3         1 CJB       0.174100
     12 C6'         -3.2910     2.4510    -2.4370 c3         1 CJB       0.225400
     13 O6'         -2.4930     3.6350    -2.3700 oh         1 CJB      -0.580800
     14 C4'         -3.2300    -0.0340    -2.7090 c3         1 CJB       0.138100
     15 O4'         -3.9310     0.0530    -3.9500 oh         1 CJB      -0.577800
     16 C3'         -2.3130    -1.2620    -2.7220 c3         1 CJB       0.145100
     17 O3'         -3.1060    -2.4460    -2.8310 oh         1 CJB      -0.588800
     18 C2'         -1.5110    -1.3010    -1.4190 c3         1 CJB       0.127100
     19 O2'         -0.6010    -2.4020    -1.4520 oh         1 CJB      -0.570800
     20 HN3          3.0380    -0.0000     1.1350 hn         1 CJB       0.206500
     21 H5          -0.5660     0.0010     3.2900 ha         1 CJB       0.149000
     22 H6          -1.7800     0.0010     1.1700 h4         1 CJB       0.136000
     23 H1'         -0.0260     0.0980    -2.0930 h2         1 CJB       0.080700
     24 H5'         -1.6940     1.3290    -3.3450 h1         1 CJB       0.037700
     25 H6'         -3.9140     2.3840    -1.5540 h1         1 CJB      -0.001300
     26 H6'A        -3.9180     2.4880    -3.3200 h1         1 CJB      -0.001300
     27 HO6'        -3.0460     4.3920    -2.4650 ho         1 CJB       0.392000
     28 H4'         -3.9370    -0.1210    -1.8930 h1         1 CJB       0.020700
     29 HO4'        -4.8240    -0.2210    -3.8260 ho         1 CJB       0.401000
     30 H3'         -1.6340    -1.1960    -3.5630 h1         1 CJB       0.033700
     31 HO3'        -2.8870    -2.8980    -3.6290 ho         1 CJB       0.406000
     32 H2'         -2.1890    -1.4100    -0.5810 h1         1 CJB       0.021700
     33 HO2'        -1.0020    -3.1540    -1.0480 ho         1 CJB       0.403000
@<TRIPOS>BOND
     1     1     3 1   
     2     1     8 1   
     3     1     9 1   
     4     2     3 2   
     5     3     4 1   
     6     4     5 1   
     7     4    20 1   
     8     5     6 2   
     9     5     7 1   
    10     7     8 2   
    11     7    21 1   
    12     8    22 1   
    13     9    10 1   
    14     9    18 1   
    15     9    23 1   
    16    10    11 1   
    17    11    12 1   
    18    11    14 1   
    19    11    24 1   
    20    12    13 1   
    21    12    25 1   
    22    12    26 1   
    23    13    27 1   
    24    14    15 1   
    25    14    16 1   
    26    14    28 1   
    27    15    29 1   
    28    16    17 1   
    29    16    18 1   
    30    16    30 1   
    31    17    31 1   
    32    18    19 1   
    33    18    32 1   
    34    19    33 1   
@<TRIPOS>SUBSTRUCTURE
     1 CJB         1 TEMP              0 ****  ****    0 ROOT
