@<TRIPOS>MOLECULE
molecule
   50    54     1     0     0
SMALL
bcc


@<TRIPOS>ATOM
      1 O47          0.0000     0.0000     0.0000 o          1 CJC      -0.592500
      2 C28          1.2180     0.0000     0.0000 c          1 CJC       0.541200
      3 C27          1.9620     0.0000     1.2640 cc         1 CJC       0.434200
      4 N29          1.9020    -0.0070    -1.1650 ns         1 CJC      -0.420100
      5 C22          3.2820    -0.0070    -1.1280 ca         1 CJC      -0.092700
      6 C23          3.9580    -0.0010     0.1070 ca         1 CJC       0.599300
      7 N26          3.2640    -0.0000     1.2600 nd         1 CJC      -0.596700
      8 N24          5.2940    -0.0020     0.1370 nb         1 CJC      -0.621000
      9 C25          6.0100    -0.0080    -0.9610 ca         1 CJC       0.462200
     10 C20          5.4040    -0.0140    -2.2220 ca         1 CJC      -0.110400
     11 C21          4.0170    -0.0140    -2.3110 ca         1 CJC      -0.077000
     12 S19          6.3900    -0.0220    -3.6830 ss         1 CJC      -0.191200
     13 C10          6.4390     1.7060    -4.0270 ca         1 CJC       0.803300
     14 N9           7.0230     2.1170    -5.1470 nb         1 CJC      -0.813000
     15 C8           7.0850     3.4090    -5.4500 ca         1 CJC       0.650200
     16 N13          7.6930     3.8330    -6.6180 nh         1 CJC      -0.660300
     17 C14          9.0650     3.2780    -6.7360 c3         1 CJC       0.143800
     18 C15          9.3670     3.3950    -8.2510 c3         1 CJC      -0.102400
     19 C16          8.0030     3.0670    -8.9010 c3         1 CJC       0.079500
     20 N18          7.9560     1.6550    -9.3030 nz         1 CJC      -0.808600
     21 C17          6.9580     3.3460    -7.8050 c3         1 CJC       0.140800
     22 C3           6.5200     4.3340    -4.5580 ca         1 CJC      -0.302400
     23 C2           5.9120     3.8570    -3.3820 ca         1 CJC       0.517800
     24 N11          5.8910     2.5430    -3.1620 nb         1 CJC      -0.744000
     25 N1           5.4470     4.9450    -2.6960 na         1 CJC      -0.258100
     26 C5           5.7360     6.0950    -3.3910 cd         1 CJC      -0.011300
     27 C4           6.3850     5.7900    -4.5260 cc         1 CJC      -0.022800
     28 Cl1          6.9550     6.9090    -5.7250 cl         1 CJC      -0.063400
     29 C6           5.3770     7.4900    -2.9450 c3         1 CJC      -0.028200
     30 C7           4.0540     7.9070    -3.5890 c3         1 CJC      -0.091100
     31 H1           1.4250     0.0000     2.2050 h4         1 CJC       0.080800
     32 H2           1.4250     0.1660    -2.0270 hn         1 CJC       0.343500
     33 H3           7.0910    -0.0080    -0.8900 h4         1 CJC       0.047100
     34 H4           3.5220    -0.0190    -3.2740 ha         1 CJC       0.152000
     35 H5           9.0840     2.2410    -6.4230 h1         1 CJC       0.083200
     36 H6           9.7660     3.8710    -6.1610 h1         1 CJC       0.083200
     37 H7           9.6770     4.4030    -8.5020 hc         1 CJC       0.089200
     38 H8          10.1160     2.6710    -8.5480 hc         1 CJC       0.089200
     39 H9           7.8310     3.7120    -9.7540 hx         1 CJC       0.124700
     40 H10          7.0480     1.4410    -9.6640 hn         1 CJC       0.456467
     41 H11          8.6450     1.4860   -10.0100 hn         1 CJC       0.456467
     42 H13          6.2630     4.1050    -8.1440 h1         1 CJC       0.082200
     43 H14          6.4280     2.4340    -7.5600 h1         1 CJC       0.082200
     44 H15          4.9680     4.9090    -1.8190 hn         1 CJC       0.326700
     45 H16          5.2760     7.5090    -1.8660 hc         1 CJC       0.070700
     46 H17          6.1580     8.1780    -3.2460 hc         1 CJC       0.070700
     47 H18          3.7840     8.9000    -3.2490 hc         1 CJC       0.046700
     48 H19          3.2780     7.2050    -3.3070 hc         1 CJC       0.046700
     49 H20          4.1630     7.9120    -4.6670 hc         1 CJC       0.046700
     50 H183         8.1300     1.0750    -8.5060 hn         1 CJC       0.456467
@<TRIPOS>BOND
     1     1     2 2
     2     3     2 1
     3     3     7 2
     4     2     4 1
     5     7     6 1
     6     4     5 1
     7     6     5 ar
     8     6     8 ar
     9     5    11 ar
    10     8     9 ar
    11    11    10 ar
    12     9    10 ar
    13    10    12 1
    14    20    19 1
    15    12    13 1
    16    18    17 1
    17    18    19 1
    18    17    16 1
    19    19    21 1
    20    13    14 ar
    21    13    24 ar
    22    14    15 ar
    23    16    15 1
    24    16    21 1
    25    24    23 ar
    26    15    22 ar
    27    23    22 ar
    28    23    25 1
    29    22    27 1
    30    25    26 1
    31    27    26 2
    32    27    28 1
    33    26    29 1
    34    29    30 1
    35     3    31 1
    36     4    32 1
    37     9    33 1
    38    11    34 1
    39    17    35 1
    40    17    36 1
    41    18    37 1
    42    18    38 1
    43    19    39 1
    44    20    40 1
    45    20    41 1
    46    21    42 1
    47    21    43 1
    48    25    44 1
    49    29    45 1
    50    29    46 1
    51    30    47 1
    52    30    48 1
    53    30    49 1
    54    50    20 1
@<TRIPOS>SUBSTRUCTURE
     1 CJC         1 TEMP              0 ****  ****    0 ROOT
