@<TRIPOS>MOLECULE
CJC
   50    54     1     0     0
SMALL
bcc


@<TRIPOS>ATOM
      1 O47          0.0000     0.0000     0.0000 o          1 CJC      -0.631500
      2 C28          1.2180     0.0000     0.0000 c          1 CJC       0.448200
      3 C27          1.9620     0.0000     1.2640 cc         1 CJC       0.393200
      4 N29          1.9020    -0.0070    -1.1650 ns         1 CJC       0.043900
      5 C22          3.2820    -0.0070    -1.1280 ca         1 CJC      -0.241700
      6 C23          3.9580    -0.0010     0.1070 ca         1 CJC       0.504300
      7 N26          3.2640    -0.0000     1.2600 nd         1 CJC      -0.481700
      8 N24          5.2940    -0.0020     0.1370 nb         1 CJC      -0.501000
      9 C25          6.0100    -0.0080    -0.9610 ca         1 CJC       0.438200
     10 C20          5.4040    -0.0140    -2.2220 ca         1 CJC      -0.062400
     11 C21          4.0170    -0.0140    -2.3110 ca         1 CJC      -0.049000
     12 S19          6.3900    -0.0220    -3.6830 ss         1 CJC      -0.335200
     13 C10          6.4390     1.7060    -4.0270 ca         1 CJC       0.753300
     14 N9           7.0230     2.1170    -5.1470 nb         1 CJC      -0.684000
     15 C8           7.0850     3.4090    -5.4500 ca         1 CJC       0.545200
     16 N13          7.6930     3.8330    -6.6180 nh         1 CJC      -0.480300
     17 C14          9.0650     3.2780    -6.7360 c3         1 CJC       0.138800
     18 C15          9.3670     3.3950    -8.2510 c3         1 CJC      -0.022400
     19 C16          8.0030     3.0670    -8.9010 c3         1 CJC      -0.096500
     20 N18          7.9560     1.6550    -9.3030 nz         1 CJC       0.073400
     21 C17          6.9580     3.3460    -7.8050 c3         1 CJC       0.152800
     22 C3           6.5200     4.3340    -4.5580 ca         1 CJC      -0.306400
     23 C2           5.9120     3.8570    -3.3820 ca         1 CJC       0.272800
     24 N11          5.8910     2.5430    -3.1620 nb         1 CJC      -0.606000
     25 N1           5.4470     4.9450    -2.6960 na         1 CJC       0.302900
     26 C5           5.7360     6.0950    -3.3910 cc         1 CJC      -0.219300
     27 C4           6.3850     5.7900    -4.5260 cd         1 CJC      -0.075800
     28 Cl1          6.9550     6.9090    -5.7250 cl         1 CJC       0.037600
     29 C6           5.3770     7.4900    -2.9450 c3         1 CJC       0.054800
     30 C7           4.0540     7.9070    -3.5890 c3         1 CJC       0.006900
     31 H1           1.4250     0.0000     2.2050 h4         1 CJC       0.023800
     32 H2           1.4250     0.1660    -2.0270 hn         1 CJC       0.181500
     33 H3           7.0910    -0.0080    -0.8900 h4         1 CJC       0.000100
     34 H4           3.5220    -0.0190    -3.2740 ha         1 CJC       0.126000
     35 H5           9.0840     2.2410    -6.4230 h1         1 CJC       0.048200
     36 H6           9.7660     3.8710    -6.1610 h1         1 CJC       0.048200
     37 H7           9.6770     4.4030    -8.5020 hc         1 CJC       0.051200
     38 H8          10.1160     2.6710    -8.5480 hc         1 CJC       0.051200
     39 H9           7.8310     3.7120    -9.7540 hx         1 CJC       0.098700
     40 H10          7.0480     1.4410    -9.6640 hn         1 CJC       0.227800
     41 H11          8.6450     1.4860   -10.0100 hn         1 CJC       0.227800
     42 H13          6.2630     4.1050    -8.1440 h1         1 CJC       0.044200
     43 H14          6.4280     2.4340    -7.5600 h1         1 CJC       0.044200
     44 H15          4.9680     4.9090    -1.8190 hn         1 CJC       0.135700
     45 H16          5.2760     7.5090    -1.8660 hc         1 CJC       0.031200
     46 H17          6.1580     8.1780    -3.2460 hc         1 CJC       0.031200
     47 H18          3.7840     8.9000    -3.2490 hc         1 CJC       0.010367
     48 H19          3.2780     7.2050    -3.3070 hc         1 CJC       0.010367
     49 H20          4.1630     7.9120    -4.6670 hc         1 CJC       0.010367
     50 H183         8.1300     1.0750    -8.5060 hn         1 CJC       0.227800
@<TRIPOS>BOND
     1     1     2 2   
     2     2     3 1   
     3     2     4 1   
     4     3     7 2   
     5     3    31 1   
     6     4     5 1   
     7     4    32 1   
     8     5     6 ar  
     9     5    11 ar  
    10     6     7 1   
    11     6     8 ar  
    12     8     9 ar  
    13     9    10 ar  
    14     9    33 1   
    15    10    11 ar  
    16    10    12 1   
    17    11    34 1   
    18    12    13 1   
    19    13    14 ar  
    20    13    24 ar  
    21    14    15 ar  
    22    15    16 1   
    23    15    22 ar  
    24    16    17 1   
    25    16    21 1   
    26    17    18 1   
    27    17    35 1   
    28    17    36 1   
    29    18    19 1   
    30    18    37 1   
    31    18    38 1   
    32    19    20 1   
    33    19    21 1   
    34    19    39 1   
    35    20    40 1   
    36    20    41 1   
    37    20    50 1   
    38    21    42 1   
    39    21    43 1   
    40    22    23 ar  
    41    22    27 1   
    42    23    24 ar  
    43    23    25 1   
    44    25    26 1   
    45    25    44 1   
    46    26    27 2   
    47    26    29 1   
    48    27    28 1   
    49    29    30 1   
    50    29    45 1   
    51    29    46 1   
    52    30    47 1   
    53    30    48 1   
    54    30    49 1   
@<TRIPOS>SUBSTRUCTURE
     1 CJC         1 TEMP              0 ****  ****    0 ROOT
