@<TRIPOS>MOLECULE
CJD
   55    58     1     0     0
SMALL
bcc


@<TRIPOS>ATOM
      1 C4           0.0000     0.0000     0.0000 ca         1 CJD      -0.044300
      2 C5           1.3960     0.0000     0.0000 ca         1 CJD      -0.137600
      3 C6           2.0940     0.0000     1.2060 ca         1 CJD       0.016400
      4 C8           2.1140     0.0210    -1.2920 c          1 CJD       0.641100
      5 C10          0.0370     0.7230    -2.3770 c3         1 CJD       0.050000
      6 C13          2.6340     1.4770    -4.1630 cc         1 CJD      -0.308400
      7 C15          4.4240     3.0700    -4.3640 cd         1 CJD      -0.252000
      8 C22          5.8740     0.4210    -4.0760 c3         1 CJD       0.257700
      9 C26          2.5180     1.4490     4.0800 cy         1 CJD      -0.150700
     10 C1           1.3950     0.0140     2.4000 ca         1 CJD      -0.128300
     11 C2           0.0120     0.0280     2.3940 ca         1 CJD      -0.042000
     12 C3          -0.6860     0.0220     1.1960 ca         1 CJD      -0.053600
     13 Cl7          3.8300    -0.0200     1.2130 cl         1 CJD       0.035600
     14 N9           1.4320     0.2880    -2.4220 n          1 CJD      -0.133800
     15 C11         -0.7410    -0.0420    -1.3110 c3         1 CJD       0.005900
     16 C12          2.0980     0.1400    -3.7180 c3         1 CJD       0.141200
     17 C14          3.9550     1.8120    -3.9360 cd         1 CJD       0.238100
     18 C16          3.5830     3.9230    -4.9860 cc         1 CJD      -0.112600
     19 N17          2.2880     3.5820    -5.2160 ns         1 CJD       0.087900
     20 C18          1.8010     2.3930    -4.8160 c          1 CJD       0.600700
     21 O19          0.6310     2.1110    -5.0250 o          1 CJD      -0.723500
     22 O21          4.7880     0.9450    -3.3100 os         1 CJD      -0.295900
     23 O23          3.3080    -0.2010    -1.3350 o          1 CJD      -0.669500
     24 Cl24        -2.4210     0.0410     1.2020 cl         1 CJD      -0.015400
     25 C25          2.1410     0.0140     3.7090 c3         1 CJD       0.237400
     26 C27          3.1910     1.5780     5.4600 cy         1 CJD       0.202400
     27 O28          4.1040     2.4810     4.8050 oq         1 CJD      -0.411600
     28 C29          3.8720     1.9060     3.5030 cy         1 CJD       0.202400
     29 O30          1.3110    -0.5400     4.7300 os         1 CJD      -0.407600
     30 C31          1.8340    -1.7310     5.3230 c3         1 CJD       0.245700
     31 H1          -0.4200     0.5470    -3.3440 h1         1 CJD       0.035200
     32 H2           0.0030     1.7810    -2.1490 h1         1 CJD       0.035200
     33 H4           5.4560     3.3510    -4.1950 ha         1 CJD       0.136000
     34 H5           3.2520     5.9400    -5.5840 hc         1 CJD       0.018700
     35 H6           4.6230     5.1540    -6.3780 hc         1 CJD       0.018700
     36 H7           4.7570     5.6750    -4.6930 hc         1 CJD       0.018700
     37 H8           6.1870    -0.5270    -3.6570 h1         1 CJD      -0.007633
     38 H9           6.7030     1.1180    -4.0500 h1         1 CJD      -0.007633
     39 H10          5.5560     0.2760    -5.1010 h1         1 CJD      -0.007633
     40 H11          1.7290     2.1750     3.9280 hc         1 CJD       0.065700
     41 H12         -0.5300     0.0390     3.3330 ha         1 CJD       0.134000
     42 H13         -1.7160     0.4120    -1.1850 hc         1 CJD       0.037200
     43 H14         -0.8560    -1.0730    -1.6230 hc         1 CJD       0.037200
     44 H15          2.9160    -0.5640    -3.6250 h1         1 CJD       0.042700
     45 H16          1.3880    -0.2260    -4.4490 h1         1 CJD       0.042700
     46 H17          3.0410    -0.5820     3.6110 h1         1 CJD       0.032700
     47 H18          3.6620     0.6610     5.7930 h1         1 CJD       0.022450
     48 H19          2.5650     2.0650     6.1980 h1         1 CJD       0.022450
     49 H20          4.5380     1.0840     3.2740 h1         1 CJD       0.022450
     50 H21          3.7740     2.6490     2.7200 h1         1 CJD       0.022450
     51 H22          1.2660    -2.5860     4.9770 h1         1 CJD      -0.008633
     52 H23          2.8730    -1.8490     5.0400 h1         1 CJD      -0.008633
     53 H24          1.7590    -1.6600     6.4010 h1         1 CJD      -0.008633
     54 H3           1.6830     4.2290    -5.6810 hn         1 CJD       0.171500
     55 C20          4.0890     5.2670    -5.4420 c3         1 CJD       0.057100
@<TRIPOS>BOND
     1     1     2 ar  
     2     1    12 ar  
     3     1    15 1   
     4     2     3 ar  
     5     2     4 1   
     6     3    10 ar  
     7     3    13 1   
     8     4    14 1   
     9     4    23 2   
    10     5    14 1   
    11     5    15 1   
    12     5    31 1   
    13     5    32 1   
    14     6    16 1   
    15     6    17 2   
    16     6    20 1   
    17     7    17 1   
    18     7    18 2   
    19     7    33 1   
    20     8    22 1   
    21     8    37 1   
    22     8    38 1   
    23     8    39 1   
    24     9    25 1   
    25     9    26 1   
    26     9    28 1   
    27     9    40 1   
    28    10    11 ar  
    29    10    25 1   
    30    11    12 ar  
    31    11    41 1   
    32    12    24 1   
    33    14    16 1   
    34    15    42 1   
    35    15    43 1   
    36    16    44 1   
    37    16    45 1   
    38    17    22 1   
    39    18    19 1   
    40    18    55 1   
    41    19    20 1   
    42    19    54 1   
    43    20    21 2   
    44    25    29 1   
    45    25    46 1   
    46    26    27 1   
    47    26    47 1   
    48    26    48 1   
    49    27    28 1   
    50    28    49 1   
    51    28    50 1   
    52    29    30 1   
    53    30    51 1   
    54    30    52 1   
    55    30    53 1   
    56    34    55 1   
    57    35    55 1   
    58    36    55 1   
@<TRIPOS>SUBSTRUCTURE
     1 CJD         1 TEMP              0 ****  ****    0 ROOT
