@<TRIPOS>MOLECULE
molecule
   22    21     1     0     0
SMALL
bcc


@<TRIPOS>ATOM
      1 CAH          0.0000     0.0000     0.0000 c3         1 CJE      -0.096100
      2 CAG          1.5300     0.0000     0.0000 c3         1 CJE       0.146400
      3 OAF          2.0150     0.0000     1.3690 os         1 CJE      -0.434900
      4 CAD          3.3450     0.0010     1.5440 c          1 CJE       0.632100
      5 OAE          4.0810     0.0010     0.5860 o          1 CJE      -0.515000
      6 CAC          3.9210     0.0010     2.9370 c3         1 CJE      -0.217700
      7 CAI          3.4490     1.2500     3.6830 c3         1 CJE      -0.074100
      8 CAB          5.4260     0.0010     2.8570 c          1 CJE       0.559100
      9 OAJ          5.9820     0.5240     1.9220 o          1 CJE      -0.474100
     10 CAA          6.2380    -0.6510     3.9470 c3         1 CJE      -0.188100
     11 H1          -0.3610     0.9090     0.4660 hc         1 CJE       0.047033
     12 H2          -0.3610    -0.8580     0.5540 hc         1 CJE       0.047033
     13 H3          -0.3610    -0.0510    -1.0200 hc         1 CJE       0.047033
     14 H4           1.8910    -0.8850    -0.5110 h1         1 CJE       0.050700
     15 H5           1.8910     0.8840    -0.5110 h1         1 CJE       0.050700
     16 H6           3.5880    -0.8840     3.4660 hc         1 CJE       0.085700
     17 H7           3.3070     2.0600     2.9780 hc         1 CJE       0.049700
     18 H8           2.5120     1.0390     4.1840 hc         1 CJE       0.049700
     19 H9           4.1940     1.5360     4.4160 hc         1 CJE       0.049700
     20 H10          6.9970    -1.2830     3.5020 hc         1 CJE       0.061700
     21 H11          5.5880    -1.2520     4.5710 hc         1 CJE       0.061700
     22 H12          6.7130     0.1140     4.5500 hc         1 CJE       0.061700
@<TRIPOS>BOND
     1     1     2 1
     2     2     3 1
     3     3     4 1
     4     7     6 1
     5     4     6 1
     6     4     5 2
     7     6     8 1
     8     8     9 2
     9     8    10 1
    10     1    11 1
    11     1    12 1
    12     1    13 1
    13     2    14 1
    14     2    15 1
    15     6    16 1
    16     7    17 1
    17     7    18 1
    18     7    19 1
    19    10    20 1
    20    10    21 1
    21    10    22 1
@<TRIPOS>SUBSTRUCTURE
     1 CJE         1 TEMP              0 ****  ****    0 ROOT
