@<TRIPOS>MOLECULE
molecule
   42    43     1     0     0
SMALL
bcc


@<TRIPOS>ATOM
      1 CAA          0.0000     0.0000     0.0000 c3         1 CJH      -0.101100
      2 CAO          1.5300     0.0000     0.0000 c3         1 CJH       0.092400
      3 OAQ          2.0060     0.0000     1.3470 os         1 CJH      -0.355900
      4 CAV          3.3540    -0.0000     1.5260 ca         1 CJH       0.129100
      5 CAN          3.8830    -0.0000     2.8050 ca         1 CJH      -0.163000
      6 CAH          4.2000    -0.0060     0.4240 ca         1 CJH      -0.218000
      7 CAG          5.5710    -0.0060     0.6020 ca         1 CJH      -0.079000
      8 CAK          6.1060    -0.0020     1.8730 ca         1 CJH      -0.187000
      9 CAX          5.2640    -0.0010     2.9840 cp         1 CJH       0.015000
     10 CAW          5.8380    -0.0000     4.3530 cp         1 CJH      -0.050000
     11 CAM          7.2200    -0.0010     4.5300 ca         1 CJH      -0.095000
     12 CAJ          7.7510     0.0000     5.8030 ca         1 CJH      -0.138500
     13 CAL          4.9940     0.0060     5.4630 ca         1 CJH      -0.095000
     14 CAI          5.5290     0.0070     6.7330 ca         1 CJH      -0.138500
     15 CAU          6.9080     0.0010     6.9080 ca         1 CJH       0.023600
     16 NAP          7.4480     0.0010     8.1970 ns         1 CJH      -0.469100
     17 CAS          6.8090    -0.6400     9.1950 c          1 CJH       0.673300
     18 OAD          5.8140    -1.2980     8.9570 o          1 CJH      -0.576100
     19 CAT          7.3140    -0.5430    10.5720 ce         1 CJH      -0.185900
     20 CAF          8.4850     0.2320    10.8530 cg         1 CJH       0.208500
     21 NAC          9.4130     0.8410    11.0950 n1         1 CJH      -0.374800
     22 CAR          6.6670    -1.1920    11.5830 c2         1 CJH       0.180900
     23 CAB          7.1850    -1.0920    12.9940 c3         1 CJH      -0.107900
     24 OAE          5.5680    -1.9190    11.3190 oh         1 CJH      -0.400100
     25 HAA          0.0660     0.4050    -1.0030 hc         1 CJH       0.064033
     26 HAAA        -0.2040    -1.0280    -0.2720 hc         1 CJH       0.064033
     27 HAAB        -0.3140     0.4260     0.9450 hc         1 CJH       0.064033
     28 HAO          1.8790    -0.9210    -0.4510 h1         1 CJH       0.053200
     29 HAOA         1.8540     0.9980    -0.2700 h1         1 CJH       0.053200
     30 HAN          3.1890     0.2270     3.6060 ha         1 CJH       0.145000
     31 HAH          3.4910     0.1720    -0.3750 ha         1 CJH       0.139000
     32 HAG          6.4360     0.1390    -0.0330 ha         1 CJH       0.139000
     33 HAK          7.0600    -0.5150     1.8890 ha         1 CJH       0.138000
     34 HAM          7.9290     0.2400     3.7470 ha         1 CJH       0.142000
     35 HAJ          8.6530    -0.1010     6.3940 ha         1 CJH       0.155500
     36 HAL          3.9630    -0.1840     5.1890 ha         1 CJH       0.142000
     37 HAI          4.8670     0.0800     7.5880 ha         1 CJH       0.155500
     38 HNAP         8.0600     0.7100     8.5490 hn         1 CJH       0.320500
     39 HAB          6.3510    -0.4740    13.3050 hc         1 CJH       0.073700
     40 HABA         6.9530    -1.9680    13.5880 hc         1 CJH       0.073700
     41 HABB         8.0630    -0.4750    13.1370 hc         1 CJH       0.073700
     42 HOAE         5.6300    -2.5100    12.0510 ho         1 CJH       0.413000
@<TRIPOS>BOND
     1     1     2 1
     2     2     3 1
     3     3     4 1
     4     4     5 ar
     5     4     6 ar
     6     5     9 ar
     7     6     7 ar
     8     7     8 ar
     9     8     9 ar
    10     9    10 1
    11    10    11 ar
    12    10    13 ar
    13    11    12 ar
    14    12    15 ar
    15    13    14 ar
    16    14    15 ar
    17    15    16 1
    18    16    17 1
    19    17    18 2
    20    17    19 1
    21    19    20 1
    22    19    22 2
    23    20    21 3
    24    22    23 1
    25    22    24 1
    26     1    25 1
    27     1    26 1
    28     1    27 1
    29     2    28 1
    30     2    29 1
    31     5    30 1
    32     6    31 1
    33     7    32 1
    34     8    33 1
    35    11    34 1
    36    12    35 1
    37    13    36 1
    38    14    37 1
    39    16    38 1
    40    23    39 1
    41    23    40 1
    42    23    41 1
    43    24    42 1
@<TRIPOS>SUBSTRUCTURE
     1 CJH         1 TEMP              0 ****  ****    0 ROOT
