@<TRIPOS>MOLECULE
CJH
   42    44     1     0     0
SMALL
bcc


@<TRIPOS>ATOM
      1 CAA          0.0000     0.0000     0.0000 c3         1 CJH      -0.146000
      2 CAO          1.5300     0.0000     0.0000 c3         1 CJH       0.041000
      3 OAQ          2.0060     0.0000     1.3470 os         1 CJH      -0.223000
      4 CAV          3.3540    -0.0000     1.5260 ca         1 CJH       0.108000
      5 CAN          3.8830    -0.0000     2.8050 ca         1 CJH      -0.156000
      6 CAH          4.2000    -0.0060     0.4240 ca         1 CJH      -0.230000
      7 CAG          5.5710    -0.0060     0.6020 ca         1 CJH      -0.035000
      8 CAK          6.1060    -0.0020     1.8730 ca         1 CJH      -0.192000
      9 CAX          5.2640    -0.0010     2.9840 cp         1 CJH       0.008000
     10 CAW          5.8380    -0.0000     4.3530 cq         1 CJH      -0.017000
     11 CAM          7.2200    -0.0010     4.5300 ca         1 CJH      -0.097000
     12 CAJ          7.7510     0.0000     5.8030 ca         1 CJH      -0.098500
     13 CAL          4.9940     0.0060     5.4630 ca         1 CJH      -0.097000
     14 CAI          5.5290     0.0070     6.7330 ca         1 CJH      -0.098500
     15 CAU          6.9080     0.0010     6.9080 ca         1 CJH      -0.096000
     16 NAP          7.4480     0.0010     8.1970 nu         1 CJH      -0.037000
     17 CAS          6.8090    -0.6400     9.1950 c3         1 CJH       0.365000
     18 OAD          5.8140    -1.2980     8.9570 o          1 CJH      -0.435000
     19 CAT          7.3140    -0.5430    10.5720 c2         1 CJH      -0.201000
     20 CAF          8.4850     0.2320    10.8530 c1         1 CJH      -0.075000
     21 NAC          9.4050     0.8630    11.0670 n1         1 CJH      -0.060000
     22 CAR          6.6670    -1.1920    11.5830 c2         1 CJH       0.294000
     23 CAB          7.1850    -1.0920    12.9940 c3         1 CJH      -0.184000
     24 OAE          5.5680    -1.9190    11.3190 oh         1 CJH      -0.239000
     25 HAA          0.1350     1.0400     0.2710 hc         1 CJH       0.068333
     26 HAAA        -0.7290    -0.6810     0.4220 hc         1 CJH       0.068333
     27 HAAB         0.0660     0.1670    -1.0680 hc         1 CJH       0.068333
     28 HAO          1.8100    -0.9730    -0.3850 h1         1 CJH       0.049000
     29 HAOA         2.1090     0.8340    -0.3780 h1         1 CJH       0.049000
     30 HAN          2.9130     0.0990     3.2780 ha         1 CJH       0.144000
     31 HAH          4.1240     0.4270    -0.5660 ha         1 CJH       0.127000
     32 HAG          6.2530     0.1060    -0.2320 ha         1 CJH       0.099000
     33 HAK          6.9320    -0.4030     2.4480 ha         1 CJH       0.151000
     34 HAM          7.7240    -0.4980     3.7110 ha         1 CJH       0.121500
     35 HAJ          8.7920    -0.1170     6.0770 ha         1 CJH       0.134500
     36 HAL          4.1410    -0.6610     5.4940 ha         1 CJH       0.121500
     37 HAI          4.9410    -0.2410     7.6090 ha         1 CJH       0.134500
     38 HNAP         6.7740     0.3170     8.8670 DU         1 CJH       0.117000
     39 HAB          6.7330    -1.7500    13.7270 hc         1 CJH       0.068333
     40 HABA         8.1500    -1.5720    13.1050 hc         1 CJH       0.068333
     41 HABB         7.4280    -0.3300    13.7240 hc         1 CJH       0.068333
     42 HOAE         4.8010    -2.0620    11.8480 ho         1 CJH       0.246000
@<TRIPOS>BOND
     1     1     2 1   
     2     1    25 1   
     3     1    26 1   
     4     1    27 1   
     5     2     3 1   
     6     2    28 1   
     7     2    29 1   
     8     3     4 1   
     9     4     5 1   
    10     4     6 1   
    11     5     9 1   
    12     5    30 1   
    13     6     7 1   
    14     6    31 1   
    15     7     8 1   
    16     7    32 1   
    17     8     9 1   
    18     8    33 1   
    19     9    10 1   
    20    10    11 1   
    21    10    13 1   
    22    11    12 1   
    23    11    34 1   
    24    12    15 1   
    25    12    35 1   
    26    13    14 1   
    27    13    36 1   
    28    14    15 1   
    29    14    37 1   
    30    15    16 1   
    31    16    17 1   
    32    16    38 1   
    33    17    18 1   
    34    17    19 1   
    35    17    38 1   
    36    19    20 1   
    37    19    22 1   
    38    20    21 1   
    39    22    23 1   
    40    22    24 1   
    41    23    39 1   
    42    23    40 1   
    43    23    41 1   
    44    24    42 1   
@<TRIPOS>SUBSTRUCTURE
     1 CJH         1 TEMP              0 ****  ****    0 ROOT
