@<TRIPOS>MOLECULE
molecule
   39    42     1     0     0
SMALL
bcc


@<TRIPOS>ATOM
      1 C5           0.0000     0.0000     0.0000 cc         1 CJJ       0.028400
      2 C6          -0.8520     0.0010    -1.2040 ca         1 CJJ       0.756500
      3 C8          -1.0110     0.0030    -3.5060 ca         1 CJJ       0.509200
      4 C10         -2.9660    -0.0040    -2.1290 ca         1 CJJ       0.751200
      5 N12         -4.3440    -0.0040    -1.9790 nu         1 CJJ      -0.821600
      6 C13         -4.9100    -0.0110    -0.6980 cd         1 CJJ       0.576200
      7 C15         -5.1070    -0.0230     1.5220 cc         1 CJJ      -0.024600
      8 C20         -5.7310     0.7390     3.9240 cx         1 CJJ      -0.125400
      9 C21         -5.7530    -0.7910     3.9170 cx         1 CJJ      -0.125400
     10 C1           1.3500     0.0000     0.0000 cd         1 CJJ      -0.155000
     11 C2           1.9260     0.0000     1.2510 cd         1 CJJ       0.010000
     12 C3           1.0630    -0.0010     2.2730 cc         1 CJJ      -0.375600
     13 S4          -0.5850     0.0060     1.6590 ss         1 CJJ       0.076200
     14 N7          -0.2800     0.0030    -2.4030 nb         1 CJJ      -0.742000
     15 C9          -2.3910     0.0030    -3.4040 ca         1 CJJ      -0.266200
     16 N11         -2.1730    -0.0050    -1.0640 nb         1 CJJ      -0.781000
     17 C14         -4.2030    -0.0190     0.5160 cd         1 CJJ      -0.350300
     18 N16         -6.3390    -0.0160     0.9720 na         1 CJJ      -0.027600
     19 N18         -6.1930    -0.0070    -0.4210 nc         1 CJJ      -0.529800
     20 C19         -4.7930    -0.0360     2.9960 cx         1 CJJ      -0.085400
     21 Cl22        -3.3860     0.0110    -4.8260 cl         1 CJJ      -0.051400
     22 S23          1.5090    -0.0030     3.9780 sy         1 CJJ       1.269200
     23 O24          0.4020    -0.5490     4.6820 o          1 CJJ      -0.516800
     24 O25          2.8190    -0.5470     4.0490 o          1 CJJ      -0.516800
     25 N26          1.6320     1.5780     4.4530 nz         1 CJJ      -0.807500
     26 H1          -0.5340     0.0060    -4.4790 h4         1 CJJ       0.060100
     27 H2          -4.9360    -0.0110    -2.7860 hn         1 CJJ       0.488800
     28 H5          -6.6090    -1.2440     3.4300 hc         1 CJJ       0.081950
     29 H6          -5.2980    -1.2690     4.7750 hc         1 CJJ       0.081950
     30 H7           1.9340     0.0010    -0.9120 ha         1 CJJ       0.202000
     31 H8           3.0000    -0.0020     1.3970 ha         1 CJJ       0.170000
     32 H9          -3.1260    -0.0220     0.6270 ha         1 CJJ       0.174000
     33 H10         -7.2060    -0.0170     1.4720 hn         1 CJJ       0.339700
     34 H11         -3.7570    -0.0520     3.3100 hc         1 CJJ       0.087700
     35 H12          2.3590     2.0280     3.9320 hn         1 CJJ       0.492800
     36 H13          1.8500     1.6170     5.4300 hn         1 CJJ       0.492800
     37 H3          -6.5730     1.2210     3.4420 hc         1 CJJ       0.081950
     38 H263         0.7650     2.0470     4.2810 hn         1 CJJ       0.492800
     39 H4          -5.2620     1.1950     4.7870 hc         1 CJJ       0.081950
@<TRIPOS>BOND
     1    25    22 1
     2     8     9 1
     3     8    20 1
     4    24    22 2
     5     9    20 1
     6    22    23 2
     7    22    12 1
     8    20     7 1
     9    12    11 2
    10    12    13 1
    11     7    18 1
    12     7    17 2
    13    11    10 1
    14    18    19 1
    15    13     1 1
    16    17     6 1
    17    10     1 2
    18    19     6 2
    19     1     2 1
    20     6     5 1
    21    16     2 ar
    22    16     4 ar
    23     2    14 ar
    24     5     4 1
    25     4    15 ar
    26    14     3 ar
    27    15     3 ar
    28    15    21 1
    29     3    26 1
    30     5    27 1
    31     8    37 1
    32     8    39 1
    33     9    28 1
    34     9    29 1
    35    10    30 1
    36    11    31 1
    37    17    32 1
    38    18    33 1
    39    20    34 1
    40    25    35 1
    41    25    36 1
    42    38    25 1
@<TRIPOS>SUBSTRUCTURE
     1 CJJ         1 TEMP              0 ****  ****    0 ROOT
