@<TRIPOS>MOLECULE
molecule
   41    42     1     0     0
SMALL
bcc


@<TRIPOS>ATOM
      1 C1           0.0000     0.0000     0.0000 c3         1 CJK      -0.053800
      2 C3           2.1980     0.0000     1.1960 ca         1 CJK      -0.128500
      3 C5           4.2720    -0.0070    -0.0020 ca         1 CJK      -0.145300
      4 C6           3.5810    -0.0140    -1.1980 ca         1 CJK      -0.105500
      5 C7           2.1980    -0.0010    -1.1980 ca         1 CJK      -0.128500
      6 C8           5.7790    -0.0080    -0.0020 c3         1 CJK       0.178300
      7 C10          7.5930     1.6190    -0.0120 c          1 CJK       0.789100
      8 N12          8.0430     2.8900    -0.0190 ns         1 CJK      -0.477100
      9 C13          9.4150     3.1470     0.0980 ca         1 CJK       0.067600
     10 C14         10.2460     2.2250     0.7160 ca         1 CJK      -0.030000
     11 C15         11.5990     2.4810     0.8310 ca         1 CJK      -0.343500
     12 C16         12.1290     3.6560     0.3300 ca         1 CJK      -0.037000
     13 C17         11.3070     4.5810    -0.2870 ca         1 CJK      -0.170000
     14 C18          9.9510     4.3290    -0.4120 ca         1 CJK       0.168100
     15 O21         13.7880     2.0300     2.0730 o          1 CJK      -0.521800
     16 C2           1.5070     0.0000     0.0000 ca         1 CJK      -0.059300
     17 C4           3.5810    -0.0000     1.1960 ca         1 CJK      -0.105500
     18 N9           6.2680     1.3730    -0.0100 ns         1 CJK      -0.574900
     19 O11          8.3830     0.6940    -0.0060 o          1 CJK      -0.683100
     20 O19          9.1400     5.2370    -1.0190 oh         1 CJK      -0.495100
     21 S20         12.6530     1.3080     1.6160 sy         1 CJK       1.236200
     22 O22         11.8250     0.5380     2.4760 o          1 CJK      -0.521800
     23 N23         13.1980     0.2750     0.4430 nz         1 CJK      -0.807500
     24 H1          -0.3610     0.1710     1.0070 hc         1 CJK       0.051033
     25 H2          -0.3610     0.7870    -0.6510 hc         1 CJK       0.051033
     26 H3          -0.3610    -0.9570    -0.3560 hc         1 CJK       0.051033
     27 H4           1.6570     0.0050     2.1340 ha         1 CJK       0.140500
     28 H5           4.1220    -0.0150    -2.1360 ha         1 CJK       0.133000
     29 H6           1.6560    -0.0070    -2.1360 ha         1 CJK       0.140500
     30 H7           6.1400    -0.5140     0.8850 h1         1 CJK       0.061200
     31 H8           6.1400    -0.5240    -0.8840 h1         1 CJK       0.061200
     32 H9           7.3950     3.6500    -0.0800 hn         1 CJK       0.344500
     33 H10          9.8340     1.3030     1.1090 ha         1 CJK       0.206000
     34 H11         13.1900     3.8540     0.4240 ha         1 CJK       0.156000
     35 H12         11.7250     5.5000    -0.6810 ha         1 CJK       0.169000
     36 H13          4.1230     0.0020     2.1340 ha         1 CJK       0.133000
     37 H14          5.6180     2.1330    -0.0470 hn         1 CJK       0.325500
     38 H15          9.2420     6.0770    -0.6030 ho         1 CJK       0.447000
     39 H16         13.5350     0.8040    -0.3370 hn         1 CJK       0.493133
     40 H17         12.4490    -0.3180     0.1460 hn         1 CJK       0.493133
     41 H233        13.9410    -0.2860     0.8110 hn         1 CJK       0.493133
@<TRIPOS>BOND
     1     1    16 1
     2    16     5 ar
     3    16     2 ar
     4     5     4 ar
     5     2    17 ar
     6     4     3 ar
     7    17     3 ar
     8     3     6 1
     9    20    14 1
    10    19     7 2
    11     7     8 1
    12     7    18 1
    13     6    18 1
    14    14    13 ar
    15    14     9 ar
    16     8     9 1
    17    13    12 ar
    18     9    10 ar
    19    12    11 ar
    20    10    11 ar
    21    11    21 1
    22    23    21 1
    23    21    15 2
    24    21    22 2
    25     1    24 1
    26     1    25 1
    27     1    26 1
    28     2    27 1
    29     4    28 1
    30     5    29 1
    31     6    30 1
    32     6    31 1
    33     8    32 1
    34    10    33 1
    35    12    34 1
    36    13    35 1
    37    17    36 1
    38    18    37 1
    39    20    38 1
    40    23    39 1
    41    23    40 1
    42    41    23 1
@<TRIPOS>SUBSTRUCTURE
     1 CJK         1 TEMP              0 ****  ****    0 ROOT
