@<TRIPOS>MOLECULE
CJK
   41    42     1     0     0
SMALL
bcc


@<TRIPOS>ATOM
      1 C1           0.0000     0.0000     0.0000 c3         1 CJK       0.059200
      2 C3           2.1980     0.0000     1.1960 ca         1 CJK      -0.100000
      3 C5           4.2720    -0.0070    -0.0020 ca         1 CJK      -0.157300
      4 C6           3.5810    -0.0140    -1.1980 ca         1 CJK      -0.076500
      5 C7           2.1980    -0.0010    -1.1980 ca         1 CJK      -0.100000
      6 C8           5.7790    -0.0080    -0.0020 c3         1 CJK       0.127300
      7 C10          7.5930     1.6190    -0.0120 c          1 CJK       0.569100
      8 N12          8.0430     2.8900    -0.0190 ns         1 CJK      -0.031100
      9 C13          9.4150     3.1470     0.0980 ca         1 CJK      -0.092400
     10 C14         10.2460     2.2250     0.7160 ca         1 CJK      -0.002000
     11 C15         11.5990     2.4810     0.8310 ca         1 CJK      -0.224500
     12 C16         12.1290     3.6560     0.3300 ca         1 CJK       0.006000
     13 C17         11.3070     4.5810    -0.2870 ca         1 CJK      -0.156000
     14 C18          9.9510     4.3290    -0.4120 ca         1 CJK       0.186100
     15 O21         13.7880     2.0300     2.0730 o          1 CJK      -0.499800
     16 C2           1.5070     0.0000     0.0000 ca         1 CJK      -0.065300
     17 C4           3.5810    -0.0000     1.1960 ca         1 CJK      -0.076500
     18 N9           6.2680     1.3730    -0.0100 ns         1 CJK      -0.177900
     19 O11          8.3830     0.6940    -0.0060 o          1 CJK      -0.733100
     20 O19          9.1400     5.2370    -1.0190 oh         1 CJK      -0.480100
     21 S20         12.6530     1.3080     1.6160 sy         1 CJK       0.938200
     22 O22         11.8250     0.5380     2.4760 o          1 CJK      -0.499800
     23 N23         13.1980     0.2750     0.4430 nz         1 CJK      -0.131500
     24 H1          -0.3610     0.1710     1.0070 hc         1 CJK       0.013367
     25 H2          -0.3610     0.7870    -0.6510 hc         1 CJK       0.013367
     26 H3          -0.3610    -0.9570    -0.3560 hc         1 CJK       0.013367
     27 H4           1.6570     0.0050     2.1340 ha         1 CJK       0.114000
     28 H5           4.1220    -0.0150    -2.1360 ha         1 CJK       0.105500
     29 H6           1.6560    -0.0070    -2.1360 ha         1 CJK       0.114000
     30 H7           6.1400    -0.5140     0.8850 h1         1 CJK       0.030200
     31 H8           6.1400    -0.5240    -0.8840 h1         1 CJK       0.030200
     32 H9           7.3950     3.6500    -0.0800 hn         1 CJK       0.182500
     33 H10          9.8340     1.3030     1.1090 ha         1 CJK       0.185000
     34 H11         13.1900     3.8540     0.4240 ha         1 CJK       0.125000
     35 H12         11.7250     5.5000    -0.6810 ha         1 CJK       0.136000
     36 H13          4.1230     0.0020     2.1340 ha         1 CJK       0.105500
     37 H14          5.6180     2.1330    -0.0470 hn         1 CJK       0.179500
     38 H15          9.2420     6.0770    -0.6030 ho         1 CJK       0.428000
     39 H16         13.5350     0.8040    -0.3370 hn         1 CJK       0.314467
     40 H17         12.4490    -0.3180     0.1460 hn         1 CJK       0.314467
     41 H233        13.9410    -0.2860     0.8110 hn         1 CJK       0.314467
@<TRIPOS>BOND
     1     1    16 1   
     2     1    24 1   
     3     1    25 1   
     4     1    26 1   
     5     2    16 ar  
     6     2    17 ar  
     7     2    27 1   
     8     3     4 ar  
     9     3     6 1   
    10     3    17 ar  
    11     4     5 ar  
    12     4    28 1   
    13     5    16 ar  
    14     5    29 1   
    15     6    18 1   
    16     6    30 1   
    17     6    31 1   
    18     7     8 1   
    19     7    18 1   
    20     7    19 2   
    21     8     9 1   
    22     8    32 1   
    23     9    10 ar  
    24     9    14 ar  
    25    10    11 ar  
    26    10    33 1   
    27    11    12 ar  
    28    11    21 1   
    29    12    13 ar  
    30    12    34 1   
    31    13    14 ar  
    32    13    35 1   
    33    14    20 1   
    34    15    21 2   
    35    17    36 1   
    36    18    37 1   
    37    20    38 1   
    38    21    22 2   
    39    21    23 1   
    40    23    39 1   
    41    23    40 1   
    42    23    41 1   
@<TRIPOS>SUBSTRUCTURE
     1 CJK         1 TEMP              0 ****  ****    0 ROOT
