@<TRIPOS>MOLECULE
CJM
   59    63     1     0     0
SMALL
bcc


@<TRIPOS>ATOM
      1 C1           0.0000     0.0000     0.0000 c3         1 CJM      -0.015100
      2 C2           1.5300     0.0000     0.0000 c3         1 CJM      -0.032700
      3 C7           2.1980    -1.1020     2.1780 ca         1 CJM       0.297800
      4 C9           2.2950    -3.2480     3.0090 ca         1 CJM       0.765900
      5 C11          2.9620    -1.5460     4.4240 ca         1 CJM       0.629200
      6 C13          3.8150    -2.1080     6.6690 c3         1 CJM       0.175500
      7 C14          4.1800    -1.3960     7.9470 cc         1 CJM       0.176800
      8 C16          5.3370    -0.3340     9.4490 ca         1 CJM       0.047400
      9 N18          3.3310    -1.1790     8.9880 na         1 CJM       0.282700
     10 C19          3.7230    -0.0120    11.2210 ca         1 CJM      -0.074000
     11 C20          4.6820     0.6380    11.9670 ca         1 CJM      -0.096000
     12 C21          5.9660     0.8090    11.4670 ca         1 CJM       0.059900
     13 C22          6.3020     0.3250    10.2200 ca         1 CJM       0.147900
     14 N25          2.0980    -4.6050     2.8080 nh         1 CJM      -0.425300
     15 C27          1.8150    -6.8090     3.8380 c3         1 CJM      -0.025400
     16 C30          0.9850    -4.8440     1.8790 c3         1 CJM       0.121500
     17 C31         -0.3220    -4.3710     2.5190 c3         1 CJM      -0.089400
     18 C32         -1.4590    -4.4880     1.5010 c3         1 CJM       0.227400
     19 N3           2.0200     0.0000     1.3810 na         1 CJM       0.208000
     20 C4           2.3790     1.0950     2.1110 cc         1 CJM       0.229700
     21 N5           2.7660     0.7310     3.2980 nd         1 CJM      -0.484100
     22 C6           2.6850    -0.6190     3.4040 ca         1 CJM      -0.270200
     23 N8           2.0220    -2.4100     2.0230 nb         1 CJM      -0.715000
     24 N10          2.7490    -2.8350     4.1850 nb         1 CJM      -0.774000
     25 N15          5.3540    -0.9060     8.2170 nd         1 CJM      -0.474100
     26 C17          4.0400    -0.5000     9.9600 ca         1 CJM      -0.263200
     27 F23          7.5550     0.4890     9.7420 f          1 CJM      -0.106900
     28 F24          6.8960     1.4500    12.2100 f          1 CJM      -0.115900
     29 C26          1.8830    -5.3010     4.0830 c3         1 CJM       0.126800
     30 C28          0.6670    -7.1130     2.8710 c3         1 CJM      -0.038400
     31 C29          0.8900    -6.3380     1.5680 c3         1 CJM      -0.030400
     32 O33         -2.6530    -3.9320     2.0550 oh         1 CJM      -0.595800
     33 H1          -0.3610     0.9420    -0.3950 hc         1 CJM       0.015033
     34 H2          -0.3610    -0.8130    -0.6180 hc         1 CJM       0.015033
     35 H3          -0.3610    -0.1290     1.0130 hc         1 CJM       0.015033
     36 H4           1.8910    -0.8840    -0.5110 h1         1 CJM       0.037200
     37 H5           1.8910     0.8840    -0.5110 h1         1 CJM       0.037200
     38 H6           2.9820    -2.7760     6.8530 h1         1 CJM       0.036200
     39 H7           4.6660    -2.6800     6.3190 h1         1 CJM       0.036200
     40 H8           2.4160    -1.5710     9.0920 hn         1 CJM       0.133700
     41 H9           2.7240    -0.1420    11.6180 ha         1 CJM       0.109000
     42 H10          4.4300     1.0220    12.9480 ha         1 CJM       0.124000
     43 H11          2.7490    -7.1470     3.4060 hc         1 CJM       0.019700
     44 H12          1.6390    -7.3190     4.7770 hc         1 CJM       0.019700
     45 H13          1.1610    -4.2970     0.9610 h1         1 CJM       0.064700
     46 H14         -0.2190    -3.3380     2.8290 hc         1 CJM       0.040200
     47 H15         -0.5450    -4.9870     3.3820 hc         1 CJM       0.040200
     48 H16         -1.6240    -5.5310     1.2610 h1         1 CJM      -0.011800
     49 H17         -1.1940    -3.9480     0.6000 h1         1 CJM      -0.011800
     50 H18          2.3480     2.1180     1.7540 h5         1 CJM       0.031800
     51 H19          3.5560    -0.1460     5.8350 hn         1 CJM       0.318800
     52 H21          2.7050    -5.0830     4.7540 h1         1 CJM       0.032200
     53 H22          0.9520    -4.9650     4.5230 h1         1 CJM       0.032200
     54 H23         -0.2710    -6.8070     3.3170 hc         1 CJM       0.018700
     55 H24          0.6450    -8.1750     2.6600 hc         1 CJM       0.018700
     56 H25          0.0590    -6.5150     0.8970 hc         1 CJM       0.024200
     57 H26          1.8120    -6.6690     1.1060 hc         1 CJM       0.024200
     58 H27         -3.3730    -4.0820     1.4650 ho         1 CJM       0.388000
     59 N12          3.4370    -1.1230     5.6530 nu         1 CJM      -0.476900
@<TRIPOS>BOND
     1     1     2 1   
     2     1    33 1   
     3     1    34 1   
     4     1    35 1   
     5     2    19 1   
     6     2    36 1   
     7     2    37 1   
     8     3    19 1   
     9     3    22 ar  
    10     3    23 ar  
    11     4    14 1   
    12     4    23 ar  
    13     4    24 ar  
    14     5    22 ar  
    15     5    24 ar  
    16     5    59 1   
    17     6     7 1   
    18     6    38 1   
    19     6    39 1   
    20     6    59 1   
    21     7     9 1   
    22     7    25 2   
    23     8    13 ar  
    24     8    25 1   
    25     8    26 ar  
    26     9    26 1   
    27     9    40 1   
    28    10    11 ar  
    29    10    26 ar  
    30    10    41 1   
    31    11    12 ar  
    32    11    42 1   
    33    12    13 ar  
    34    12    28 1   
    35    13    27 1   
    36    14    16 1   
    37    14    29 1   
    38    15    29 1   
    39    15    30 1   
    40    15    43 1   
    41    15    44 1   
    42    16    17 1   
    43    16    31 1   
    44    16    45 1   
    45    17    18 1   
    46    17    46 1   
    47    17    47 1   
    48    18    32 1   
    49    18    48 1   
    50    18    49 1   
    51    19    20 1   
    52    20    21 2   
    53    20    50 1   
    54    21    22 1   
    55    29    52 1   
    56    29    53 1   
    57    30    31 1   
    58    30    54 1   
    59    30    55 1   
    60    31    56 1   
    61    31    57 1   
    62    32    58 1   
    63    51    59 1   
@<TRIPOS>SUBSTRUCTURE
     1 CJM         1 TEMP              0 ****  ****    0 ROOT
