@<TRIPOS>MOLECULE
molecule
   59    63     1     0     0
SMALL
bcc


@<TRIPOS>ATOM
      1 C1           0.0000     0.0000     0.0000 c3         1 CJM      -0.115100
      2 C2           1.5300     0.0000     0.0000 c3         1 CJM       0.049300
      3 C7           2.1980    -1.1020     2.1780 ca         1 CJM       0.500800
      4 C9           2.2950    -3.2480     3.0090 ca         1 CJM       0.933900
      5 C11          2.9620    -1.5460     4.4240 ca         1 CJM       0.810200
      6 C13          3.8150    -2.1080     6.6690 c3         1 CJM       0.241500
      7 C14          4.1800    -1.3960     7.9470 cc         1 CJM       0.397800
      8 C16          5.3370    -0.3340     9.4490 ca         1 CJM       0.070400
      9 N18          3.3310    -1.1790     8.9880 na         1 CJM      -0.253300
     10 C19          3.7230    -0.0120    11.2210 ca         1 CJM      -0.120000
     11 C20          4.6820     0.6380    11.9670 ca         1 CJM      -0.124000
     12 C21          5.9660     0.8090    11.4670 ca         1 CJM       0.075900
     13 C22          6.3020     0.3250    10.2200 ca         1 CJM       0.159900
     14 N25          2.0980    -4.6050     2.8080 nh         1 CJM      -0.665300
     15 C27          1.8150    -6.8090     3.8380 c3         1 CJM      -0.083400
     16 C30          0.9850    -4.8440     1.8790 c3         1 CJM       0.183500
     17 C31         -0.3220    -4.3710     2.5190 c3         1 CJM      -0.116400
     18 C32         -1.4590    -4.4880     1.5010 c3         1 CJM       0.144400
     19 N3           2.0200     0.0000     1.3810 na         1 CJM      -0.253000
     20 C4           2.3790     1.0950     2.1110 cd         1 CJM       0.407700
     21 N5           2.7660     0.7310     3.2980 nc         1 CJM      -0.577100
     22 C6           2.6850    -0.6190     3.4040 ca         1 CJM      -0.236200
     23 N8           2.0220    -2.4100     2.0230 nb         1 CJM      -0.830000
     24 N10          2.7490    -2.8350     4.1850 nb         1 CJM      -0.869000
     25 N15          5.3540    -0.9060     8.2170 nd         1 CJM      -0.566100
     26 C17          4.0400    -0.5000     9.9600 ca         1 CJM      -0.081200
     27 F23          7.5550     0.4890     9.7420 f          1 CJM      -0.110900
     28 F24          6.8960     1.4500    12.2100 f          1 CJM      -0.126900
     29 C26          1.8830    -5.3010     4.0830 c3         1 CJM       0.170800
     30 C28          0.6670    -7.1130     2.8710 c3         1 CJM      -0.089400
     31 C29          0.8900    -6.3380     1.5680 c3         1 CJM      -0.080400
     32 O33         -2.6530    -3.9320     2.0550 oh         1 CJM      -0.612800
     33 H1          -0.3610     0.9420    -0.3950 hc         1 CJM       0.049033
     34 H2          -0.3610    -0.8130    -0.6180 hc         1 CJM       0.049033
     35 H3          -0.3610    -0.1290     1.0130 hc         1 CJM       0.049033
     36 H4           1.8910    -0.8840    -0.5110 h1         1 CJM       0.065700
     37 H5           1.8910     0.8840    -0.5110 h1         1 CJM       0.065700
     38 H6           2.9820    -2.7760     6.8530 h1         1 CJM       0.074200
     39 H7           4.6660    -2.6800     6.3190 h1         1 CJM       0.074200
     40 H8           2.4160    -1.5710     9.0920 hn         1 CJM       0.310700
     41 H9           2.7240    -0.1420    11.6180 ha         1 CJM       0.139000
     42 H10          4.4300     1.0220    12.9480 ha         1 CJM       0.156000
     43 H11          2.7490    -7.1470     3.4060 hc         1 CJM       0.051700
     44 H12          1.6390    -7.3190     4.7770 hc         1 CJM       0.051700
     45 H13          1.1610    -4.2970     0.9610 h1         1 CJM       0.094700
     46 H14         -0.2190    -3.3380     2.8290 hc         1 CJM       0.062700
     47 H15         -0.5450    -4.9870     3.3820 hc         1 CJM       0.062700
     48 H16         -1.6240    -5.5310     1.2610 h1         1 CJM       0.021200
     49 H17         -1.1940    -3.9480     0.6000 h1         1 CJM       0.021200
     50 H18          2.3480     2.1180     1.7540 h5         1 CJM       0.077800
     51 H19          3.5560    -0.1460     5.8350 hn         1 CJM       0.476800
     52 H21          2.7050    -5.0830     4.7540 h1         1 CJM       0.056700
     53 H22          0.9520    -4.9650     4.5230 h1         1 CJM       0.056700
     54 H23         -0.2710    -6.8070     3.3170 hc         1 CJM       0.044200
     55 H24          0.6450    -8.1750     2.6600 hc         1 CJM       0.044200
     56 H25          0.0590    -6.5150     0.8970 hc         1 CJM       0.051700
     57 H26          1.8120    -6.6690     1.1060 hc         1 CJM       0.051700
     58 H27         -3.3730    -4.0820     1.4650 ho         1 CJM       0.401000
     59 N12          3.4370    -1.1230     5.6530 nu         1 CJM      -0.894900
@<TRIPOS>BOND
     1    10    11 ar
     2    10    26 ar
     3     9    26 1
     4     9     7 1
     5    21    20 2
     6    21    22 1
     7    11    12 ar
     8    20    19 1
     9    26     8 ar
    10    59     6 1
    11    59     5 1
    12     7     6 1
    13     7    25 2
    14    22     5 ar
    15    22     3 ar
    16    19     3 1
    17    19     2 1
    18     5    24 ar
    19    12    28 1
    20    12    13 ar
    21     8    25 1
    22     8    13 ar
    23     3    23 ar
    24     2     1 1
    25    13    27 1
    26    24     4 ar
    27    23     4 ar
    28     4    14 1
    29    14    29 1
    30    14    16 1
    31    29    15 1
    32    16    31 1
    33    16    17 1
    34    32    18 1
    35    30    15 1
    36    30    31 1
    37    18    17 1
    38     1    33 1
    39     1    34 1
    40     1    35 1
    41     2    36 1
    42     2    37 1
    43     6    38 1
    44     6    39 1
    45     9    40 1
    46    10    41 1
    47    11    42 1
    48    15    43 1
    49    15    44 1
    50    16    45 1
    51    17    46 1
    52    17    47 1
    53    18    48 1
    54    18    49 1
    55    20    50 1
    56    59    51 1
    57    29    52 1
    58    29    53 1
    59    30    54 1
    60    30    55 1
    61    31    56 1
    62    31    57 1
    63    32    58 1
@<TRIPOS>SUBSTRUCTURE
     1 CJM         1 TEMP              0 ****  ****    0 ROOT
