@<TRIPOS>MOLECULE
CJN
   49    51     1     0     0
SMALL
bcc


@<TRIPOS>ATOM
      1 C1           0.0000     0.0000     0.0000 c3         1 CJN      -0.011100
      2 C2           1.5310     0.0000     0.0000 c3         1 CJN      -0.089000
      3 C3           2.0400     0.0000     1.4430 c3         1 CJN      -0.011100
      4 C7           2.9860    -2.5370    -2.2030 ca         1 CJN       0.438100
      5 C9           4.0300    -1.8410    -4.1310 ca         1 CJN       0.642900
      6 C11          3.1240    -0.2040    -2.7740 ca         1 CJN       0.575200
      7 C13          3.2110     2.1510    -3.5120 c3         1 CJN       0.135500
      8 C15          3.4300     3.4950    -2.8150 c3         1 CJN      -0.034400
      9 C16          3.7870     4.5580    -3.8550 c3         1 CJN      -0.045900
     10 C19          2.4260     3.3430    -5.5630 c3         1 CJN      -0.045900
     11 C20          2.0690     2.2800    -4.5210 c3         1 CJN      -0.034400
     12 C22          1.8280     6.0290    -6.7070 c3         1 CJN       0.173100
     13 C24          2.6980    -1.1970    -1.8870 ca         1 CJN      -0.514800
     14 N4           2.0180    -1.1970    -0.6900 na         1 CJN       0.428600
     15 C5           1.8680    -2.4760    -0.2450 cc         1 CJN      -0.244100
     16 C6           2.4320    -3.3350    -1.1150 cd         1 CJN      -0.283800
     17 N8           3.6530    -2.8110    -3.3280 nb         1 CJN      -0.631000
     18 N10          3.7750    -0.5700    -3.8740 nb         1 CJN      -0.714000
     19 C17          2.6450     4.6870    -4.8640 c3         1 CJN       0.126500
     20 N21          2.9870     5.7070    -5.8640 n3         1 CJN      -0.540600
     21 C23          4.1300     5.2790    -6.6830 c3         1 CJN       0.173100
     22 H1          -0.3610     0.9740     0.3070 hc         1 CJN       0.016200
     23 H2          -0.3610    -0.7530     0.6900 hc         1 CJN       0.016200
     24 H3          -0.3610    -0.2220    -0.9970 hc         1 CJN       0.016200
     25 H4           1.8920     0.8840    -0.5110 h1         1 CJN       0.050700
     26 H5           3.1030    -0.2110     1.4500 hc         1 CJN       0.016200
     27 H6           1.8620     0.9710     1.8890 hc         1 CJN       0.016200
     28 H7           1.5170    -0.7600     2.0110 hc         1 CJN       0.016200
     29 H8           4.5630    -2.0930    -5.0390 h5         1 CJN      -0.005900
     30 H14          4.1180     1.8640    -4.0310 h1         1 CJN       0.063700
     31 H9           2.5210     3.7850    -2.3010 hc         1 CJN       0.018950
     32 H10          4.2400     3.4020    -2.1020 hc         1 CJN       0.018950
     33 H11          3.9390     5.5090    -3.3600 hc         1 CJN       0.028200
     34 H12          4.6930     4.2650    -4.3720 hc         1 CJN       0.028200
     35 H13          1.6150     3.4350    -6.2750 hc         1 CJN       0.028200
     36 H15          3.3340     3.0520    -6.0770 hc         1 CJN       0.028200
     37 H16          1.1630     2.5740    -4.0030 hc         1 CJN       0.018950
     38 H17          1.9160     1.3290    -5.0150 hc         1 CJN       0.018950
     39 H19          1.7150     5.2710    -7.4720 h1         1 CJN       0.004533
     40 H20          1.9790     6.9950    -7.1750 h1         1 CJN       0.004533
     41 H21          0.9340     6.0600    -6.0950 h1         1 CJN       0.004533
     42 H22          1.3690    -2.7600     0.6740 h4         1 CJN       0.143000
     43 H23          2.4670    -4.4140    -1.0240 ha         1 CJN       0.138000
     44 H24          2.4870     1.4070    -1.6320 hn         1 CJN       0.303800
     45 H18          1.7380     4.9740    -4.3450 h1         1 CJN       0.036700
     46 H26          4.4610     6.1050    -7.3020 h1         1 CJN       0.004533
     47 H27          3.8320     4.4520    -7.3160 h1         1 CJN       0.004533
     48 H28          4.9410     4.9660    -6.0370 h1         1 CJN       0.004533
     49 N12          2.8690     1.1330    -2.5160 nu         1 CJN      -0.536900
@<TRIPOS>BOND
     1     1     2 1   
     2     1    22 1   
     3     1    23 1   
     4     1    24 1   
     5     2     3 1   
     6     2    14 1   
     7     2    25 1   
     8     3    26 1   
     9     3    27 1   
    10     3    28 1   
    11     4    13 ar  
    12     4    16 1   
    13     4    17 ar  
    14     5    17 ar  
    15     5    18 ar  
    16     5    29 1   
    17     6    13 ar  
    18     6    18 ar  
    19     6    49 1   
    20     7     8 1   
    21     7    11 1   
    22     7    30 1   
    23     7    49 1   
    24     8     9 1   
    25     8    31 1   
    26     8    32 1   
    27     9    19 1   
    28     9    33 1   
    29     9    34 1   
    30    10    11 1   
    31    10    19 1   
    32    10    35 1   
    33    10    36 1   
    34    11    37 1   
    35    11    38 1   
    36    12    20 1   
    37    12    39 1   
    38    12    40 1   
    39    12    41 1   
    40    13    14 1   
    41    14    15 1   
    42    15    16 2   
    43    15    42 1   
    44    16    43 1   
    45    19    20 1   
    46    19    45 1   
    47    20    21 1   
    48    21    46 1   
    49    21    47 1   
    50    21    48 1   
    51    44    49 1   
@<TRIPOS>SUBSTRUCTURE
     1 CJN         1 TEMP              0 ****  ****    0 ROOT
