@<TRIPOS>MOLECULE
molecule
   38    40     1     0     0
SMALL
bcc


@<TRIPOS>ATOM
      1 O23          0.0000     0.0000     0.0000 o          1 CJP      -0.578800
      2 S20          1.4210     0.0000     0.0000 s6         1 CJP       1.291000
      3 O22          2.1530     0.0000     1.2180 o          1 CJP      -0.578800
      4 C21          2.0560    -1.2730    -1.1250 c3         1 CJP      -0.240300
      5 N9           1.8300     1.4310    -0.7240 na         1 CJP      -0.184900
      6 C4           1.0440     2.1180    -1.6240 ca         1 CJP       0.004800
      7 C5          -0.2120     1.8750    -2.1720 ca         1 CJP      -0.121000
      8 C6          -0.7510     2.7680    -3.0710 ca         1 CJP      -0.116000
      9 C1          -0.0540     3.9110    -3.4400 ca         1 CJP      -0.131000
     10 C8           3.0020     2.1190    -0.5110 cc         1 CJP       0.105700
     11 C7           3.0100     3.2480    -1.2630 cd         1 CJP      -0.239400
     12 C16          4.1070     4.2790    -1.3230 c3         1 CJP       0.195000
     13 N17          5.0600     3.9180    -2.3820 nz         1 CJP      -0.814600
     14 C3           1.7470     3.2770    -2.0000 ca         1 CJP      -0.067800
     15 C2           1.1820     4.1700    -2.9150 ca         1 CJP      -0.135000
     16 C10          4.0880     1.6920     0.3970 ca         1 CJP      -0.114800
     17 C15          5.1220     0.8840    -0.0790 ca         1 CJP      -0.121000
     18 C14          6.1330     0.4890     0.7730 ca         1 CJP      -0.123000
     19 C13          6.1240     0.8940     2.0980 ca         1 CJP       0.062400
     20 Cl1          7.4000     0.3930     3.1630 cl         1 CJP      -0.050400
     21 C12          5.1020     1.6960     2.5760 ca         1 CJP      -0.103000
     22 C11          4.0870     2.1010     1.7320 ca         1 CJP       0.092400
     23 Cl2          2.8070     3.1070     2.3320 cl         1 CJP      -0.052400
     24 H1           1.2480    -1.9330    -1.4170 h1         1 CJP       0.110033
     25 H2           2.8270    -1.8460    -0.6240 h1         1 CJP       0.110033
     26 H3           2.4740    -0.8010    -2.0060 h1         1 CJP       0.110033
     27 H4          -1.0310     1.1660    -2.1630 ha         1 CJP       0.188000
     28 H5          -1.7220     2.6320    -3.5310 ha         1 CJP       0.155000
     29 H6          -0.5250     4.5820    -4.1480 ha         1 CJP       0.148000
     30 H7           3.6780     5.2500    -1.5390 hx         1 CJP       0.113200
     31 H8           4.6210     4.3140    -0.3710 hx         1 CJP       0.113200
     32 H9           5.9250     3.6320    -1.9690 hn         1 CJP       0.452467
     33 H10          5.2180     4.7100    -2.9740 hn         1 CJP       0.452467
     34 H12          1.4240     5.1520    -3.3020 ha         1 CJP       0.144000
     35 H13          5.1310     0.5670    -1.1150 ha         1 CJP       0.130000
     36 H14          6.9360    -0.1380     0.4060 ha         1 CJP       0.162000
     37 H15          5.1010     2.0110     3.6120 ha         1 CJP       0.180000
     38 H173         4.6910     3.1570    -2.9180 hn         1 CJP       0.452467
@<TRIPOS>BOND
     1    23    22 1
     2    21    22 ar
     3    21    19 ar
     4    22    16 ar
     5    20    19 1
     6     4     2 1
     7     1     2 2
     8    19    18 ar
     9    16    10 1
    10    16    17 ar
    11     2     5 1
    12     2     3 2
    13    10     5 1
    14    10    11 2
    15     5     6 1
    16    11    12 1
    17    11    14 1
    18    12    13 1
    19     6    14 ar
    20     6     7 ar
    21    14    15 ar
    22     7     8 ar
    23    18    17 ar
    24    15     9 ar
    25     8     9 ar
    26     4    24 1
    27     4    25 1
    28     4    26 1
    29     7    27 1
    30     8    28 1
    31     9    29 1
    32    12    30 1
    33    12    31 1
    34    13    32 1
    35    13    33 1
    36    15    34 1
    37    17    35 1
    38    18    36 1
    39    21    37 1
    40    38    13 1
@<TRIPOS>SUBSTRUCTURE
     1 CJP         1 TEMP              0 ****  ****    0 ROOT
