@<TRIPOS>MOLECULE
CJP
   38    40     1     0     0
SMALL
bcc


@<TRIPOS>ATOM
      1 O23          0.0000     0.0000     0.0000 o          1 CJP      -0.546800
      2 S20          1.4210     0.0000     0.0000 s6         1 CJP       0.937000
      3 O22          2.1530     0.0000     1.2180 o          1 CJP      -0.546800
      4 C21          2.0560    -1.2730    -1.1250 c3         1 CJP       0.014700
      5 N9           1.8300     1.4310    -0.7240 na         1 CJP       0.191100
      6 C4           1.0440     2.1180    -1.6240 ca         1 CJP      -0.091200
      7 C5          -0.2120     1.8750    -2.1720 ca         1 CJP      -0.082000
      8 C6          -0.7510     2.7680    -3.0710 ca         1 CJP      -0.097000
      9 C1          -0.0540     3.9110    -3.4400 ca         1 CJP      -0.102000
     10 C8           3.0020     2.1190    -0.5110 cc         1 CJP       0.017700
     11 C7           3.0100     3.2480    -1.2630 cd         1 CJP      -0.272400
     12 C16          4.1070     4.2790    -1.3230 c3         1 CJP       0.080000
     13 N17          5.0600     3.9180    -2.3820 nz         1 CJP       0.056400
     14 C3           1.7470     3.2770    -2.0000 ca         1 CJP      -0.063800
     15 C2           1.1820     4.1700    -2.9150 ca         1 CJP      -0.111000
     16 C10          4.0880     1.6920     0.3970 ca         1 CJP      -0.108800
     17 C15          5.1220     0.8840    -0.0790 ca         1 CJP      -0.102000
     18 C14          6.1330     0.4890     0.7730 ca         1 CJP      -0.097000
     19 C13          6.1240     0.8940     2.0980 ca         1 CJP      -0.013600
     20 Cl1          7.4000     0.3930     3.1630 cl         1 CJP       0.035600
     21 C12          5.1020     1.6960     2.5760 ca         1 CJP      -0.079000
     22 C11          4.0870     2.1010     1.7320 ca         1 CJP       0.024400
     23 Cl2          2.8070     3.1070     2.3320 cl         1 CJP       0.031600
     24 H1           1.2480    -1.9330    -1.4170 h1         1 CJP       0.073367
     25 H2           2.8270    -1.8460    -0.6240 h1         1 CJP       0.073367
     26 H3           2.4740    -0.8010    -2.0060 h1         1 CJP       0.073367
     27 H4          -1.0310     1.1660    -2.1630 ha         1 CJP       0.158000
     28 H5          -1.7220     2.6320    -3.5310 ha         1 CJP       0.121000
     29 H6          -0.5250     4.5820    -4.1480 ha         1 CJP       0.116000
     30 H7           3.6780     5.2500    -1.5390 hx         1 CJP       0.080700
     31 H8           4.6210     4.3140    -0.3710 hx         1 CJP       0.080700
     32 H9           5.9250     3.6320    -1.9690 hn         1 CJP       0.222800
     33 H10          5.2180     4.7100    -2.9740 hn         1 CJP       0.222800
     34 H12          1.4240     5.1520    -3.3020 ha         1 CJP       0.117000
     35 H13          5.1310     0.5670    -1.1150 ha         1 CJP       0.095000
     36 H14          6.9360    -0.1380     0.4060 ha         1 CJP       0.126000
     37 H15          5.1010     2.0110     3.6120 ha         1 CJP       0.141000
     38 H173         4.6910     3.1570    -2.9180 hn         1 CJP       0.222800
@<TRIPOS>BOND
     1     1     2 2   
     2     2     3 2   
     3     2     4 1   
     4     2     5 1   
     5     4    24 1   
     6     4    25 1   
     7     4    26 1   
     8     5     6 1   
     9     5    10 1   
    10     6     7 ar  
    11     6    14 ar  
    12     7     8 ar  
    13     7    27 1   
    14     8     9 ar  
    15     8    28 1   
    16     9    15 ar  
    17     9    29 1   
    18    10    11 2   
    19    10    16 1   
    20    11    12 1   
    21    11    14 1   
    22    12    13 1   
    23    12    30 1   
    24    12    31 1   
    25    13    32 1   
    26    13    33 1   
    27    13    38 1   
    28    14    15 ar  
    29    15    34 1   
    30    16    17 ar  
    31    16    22 ar  
    32    17    18 ar  
    33    17    35 1   
    34    18    19 ar  
    35    18    36 1   
    36    19    20 1   
    37    19    21 ar  
    38    21    22 ar  
    39    21    37 1   
    40    22    23 1   
@<TRIPOS>SUBSTRUCTURE
     1 CJP         1 TEMP              0 ****  ****    0 ROOT
