@<TRIPOS>MOLECULE
molecule
   58    62     1     0     0
SMALL
bcc


@<TRIPOS>ATOM
      1 C1           0.0000     0.0000     0.0000 ca         1 CJQ       0.726600
      2 C2           1.4170     0.0000     0.0000 ca         1 CJQ      -0.333400
      3 C3           2.3480     0.0000     1.1320 cc         1 CJQ      -0.098400
      4 C7           3.6070     0.4480     3.1660 c3         1 CJQ      -0.079400
      5 C8           2.2240    -0.0000     2.6550 c3         1 CJQ       0.008500
      6 C9           1.9010    -1.4070     3.1630 c3         1 CJQ      -0.150400
      7 C10          1.6620    -1.3620     4.6510 c          1 CJQ       0.476100
      8 C11         -2.1160    -0.0030     1.0770 c3         1 CJQ       0.137100
      9 C12         -2.6260     1.4390     1.0480 c3         1 CJQ      -0.086400
     10 C13         -4.1520     1.4380     0.9530 c3         1 CJQ      -0.094900
     11 C14         -4.7400     0.7140     2.1650 c3         1 CJQ       0.169500
     12 C15         -4.2290    -0.7290     2.1940 c3         1 CJQ      -0.094900
     13 C16         -2.7030    -0.7290     2.2900 c3         1 CJQ      -0.086400
     14 C19         -8.3360     0.3120     3.2080 c3         1 CJQ       0.140400
     15 C20         -6.8120     0.2400     3.3270 c3         1 CJQ       0.117800
     16 O            1.7440    -0.3080     5.2460 o          1 CJQ      -0.393100
     17 N2           1.3600    -2.4920     5.3190 nz         1 CJQ      -0.686400
     18 C6           4.5230    -0.0010     2.0090 c3         1 CJQ      -0.007200
     19 C4           3.6250    -0.0000     0.7760 cd         1 CJQ      -0.067600
     20 C5           2.0660     0.0020    -1.2300 ca         1 CJQ       0.532600
     21 S            3.8020     0.0000    -0.9780 ss         1 CJQ      -0.036900
     22 N1           1.3360     0.0050    -2.3540 nb         1 CJQ      -0.721000
     23 C            0.0240     0.0050    -2.3030 ca         1 CJQ       0.741900
     24 N           -0.6370    -0.0040    -1.1590 nb         1 CJQ      -0.820000
     25 O1          -0.6900    -0.0030     1.1660 os         1 CJQ      -0.455100
     26 N3          -6.2060     0.7130     2.0740 n3         1 CJQ      -0.715600
     27 O2          -8.7600    -0.4550     2.0790 os         1 CJQ      -0.420600
     28 C18         -8.1890    -0.0220     0.8410 c3         1 CJQ       0.140400
     29 C17         -6.6620    -0.0980     0.9350 c3         1 CJQ       0.117800
     30 H1           3.8650    -0.0660     4.0840 hc         1 CJQ       0.062700
     31 H2           3.6420     1.5240     3.2900 hc         1 CJQ       0.062700
     32 H3           1.4630     0.7040     2.9690 hc         1 CJQ       0.092700
     33 H4           1.0120    -1.7750     2.6660 hc         1 CJQ       0.100700
     34 H5           2.7330    -2.0670     2.9500 hc         1 CJQ       0.100700
     35 H6          -2.4250    -0.5110     0.1710 h1         1 CJQ       0.086700
     36 H7          -2.2110     1.9500     0.1880 hc         1 CJQ       0.046200
     37 H8          -2.3220     1.9460     1.9570 hc         1 CJQ       0.046200
     38 H9          -4.5120     2.4590     0.9340 hc         1 CJQ       0.059950
     39 H10         -4.4550     0.9260     0.0470 hc         1 CJQ       0.059950
     40 H11         -4.4310     1.2220     3.0710 h1         1 CJQ       0.063700
     41 H12         -4.6430    -1.2400     3.0550 hc         1 CJQ       0.059950
     42 H13         -4.5330    -1.2360     1.2860 hc         1 CJQ       0.059950
     43 H14         -2.3990    -0.2180     3.1960 hc         1 CJQ       0.046200
     44 H15         -2.3430    -1.7500     2.3070 hc         1 CJQ       0.046200
     45 H18         -6.5120    -0.7850     3.5080 h1         1 CJQ       0.041950
     46 H19         -6.4830     0.8690     4.1460 h1         1 CJQ       0.041950
     47 H20          2.2010    -2.9110     5.6640 hn         1 CJQ       0.477467
     48 H21          0.7570    -2.2730     6.0880 hn         1 CJQ       0.477467
     49 H22          5.3380     0.7020     1.8810 hc         1 CJQ       0.065700
     50 H23          4.9030    -0.9980     2.1970 hc         1 CJQ       0.065700
     51 H24         -0.5350     0.0010    -3.2310 h5         1 CJQ       0.078100
     52 H26         -8.4870     1.0010     0.6460 h1         1 CJQ       0.058700
     53 H27         -8.5330    -0.6640     0.0400 h1         1 CJQ       0.058700
     54 H28         -6.3600    -1.1280     1.0820 h1         1 CJQ       0.041950
     55 H29         -6.2240     0.2850     0.0210 h1         1 CJQ       0.041950
     56 H16         -8.6390     1.3440     3.0770 h1         1 CJQ       0.058700
     57 H231         0.8940    -3.1290     4.7040 hn         1 CJQ       0.477467
     58 H17         -8.7870    -0.0910     4.1070 h1         1 CJQ       0.058700
@<TRIPOS>BOND
     1    22    23 ar
     2    22    20 ar
     3    23    24 ar
     4    21    20 1
     5    21    19 1
     6    20     2 ar
     7    24     1 ar
     8     2     1 ar
     9     2     3 1
    10     1    25 1
    11    19     3 2
    12    19    18 1
    13     3     5 1
    14    18     4 1
    15    25     8 1
    16     8    13 1
    17     8     9 1
    18    13    12 1
    19    12    11 1
    20     5     4 1
    21     5     6 1
    22    29    28 1
    23    29    26 1
    24     9    10 1
    25     6     7 1
    26    28    27 1
    27    10    11 1
    28    11    26 1
    29    26    15 1
    30    27    14 1
    31     7    17 1
    32     7    16 2
    33    15    14 1
    34     4    30 1
    35     4    31 1
    36     5    32 1
    37     6    33 1
    38     6    34 1
    39     8    35 1
    40     9    36 1
    41     9    37 1
    42    10    38 1
    43    10    39 1
    44    11    40 1
    45    12    41 1
    46    12    42 1
    47    13    43 1
    48    13    44 1
    49    14    56 1
    50    14    58 1
    51    15    45 1
    52    15    46 1
    53    17    47 1
    54    17    48 1
    55    18    49 1
    56    18    50 1
    57    23    51 1
    58    28    52 1
    59    28    53 1
    60    29    54 1
    61    29    55 1
    62    57    17 1
@<TRIPOS>SUBSTRUCTURE
     1 CJQ         1 TEMP              0 ****  ****    0 ROOT
