@<TRIPOS>MOLECULE
CJQ
   58    62     1     0     0
SMALL
bcc


@<TRIPOS>ATOM
      1 C1           0.0000     0.0000     0.0000 ca         1 CJQ       0.691600
      2 C2           1.4170     0.0000     0.0000 ca         1 CJQ      -0.327400
      3 C3           2.3480     0.0000     1.1320 cc         1 CJQ      -0.106400
      4 C7           3.6070     0.4480     3.1660 c3         1 CJQ      -0.028400
      5 C8           2.2240    -0.0000     2.6550 c3         1 CJQ       0.045500
      6 C9           1.9010    -1.4070     3.1630 c3         1 CJQ      -0.088400
      7 C10          1.6620    -1.3620     4.6510 c          1 CJQ       0.309100
      8 C11         -2.1160    -0.0030     1.0770 c3         1 CJQ       0.164100
      9 C12         -2.6260     1.4390     1.0480 c3         1 CJQ      -0.031900
     10 C13         -4.1520     1.4380     0.9530 c3         1 CJQ      -0.047900
     11 C14         -4.7400     0.7140     2.1650 c3         1 CJQ       0.130500
     12 C15         -4.2290    -0.7290     2.1940 c3         1 CJQ      -0.047900
     13 C16         -2.7030    -0.7290     2.2900 c3         1 CJQ      -0.031900
     14 C19         -8.3360     0.3120     3.2080 c3         1 CJQ       0.215900
     15 C20         -6.8120     0.2400     3.3270 c3         1 CJQ       0.098800
     16 O            1.7440    -0.3080     5.2460 o          1 CJQ      -0.393100
     17 N2           1.3600    -2.4920     5.3190 nz         1 CJQ       0.196600
     18 C6           4.5230    -0.0010     2.0090 c3         1 CJQ       0.075800
     19 C4           3.6250    -0.0000     0.7760 cd         1 CJQ      -0.009600
     20 C5           2.0660     0.0020    -1.2300 ca         1 CJQ       0.550600
     21 S            3.8020     0.0000    -0.9780 ss         1 CJQ      -0.198900
     22 N1           1.3360     0.0050    -2.3540 nb         1 CJQ      -0.596000
     23 C            0.0240     0.0050    -2.3030 ca         1 CJQ       0.688900
     24 N           -0.6370    -0.0040    -1.1590 nb         1 CJQ      -0.708000
     25 O1          -0.6900    -0.0030     1.1660 os         1 CJQ      -0.441100
     26 N3          -6.2060     0.7130     2.0740 n3         1 CJQ      -0.525600
     27 O2          -8.7600    -0.4550     2.0790 os         1 CJQ      -0.407600
     28 C18         -8.1890    -0.0220     0.8410 c3         1 CJQ       0.215900
     29 C17         -6.6620    -0.0980     0.9350 c3         1 CJQ       0.098800
     30 H1           3.8650    -0.0660     4.0840 hc         1 CJQ       0.030700
     31 H2           3.6420     1.5240     3.2900 hc         1 CJQ       0.030700
     32 H3           1.4630     0.7040     2.9690 hc         1 CJQ       0.059700
     33 H4           1.0120    -1.7750     2.6660 hc         1 CJQ       0.065200
     34 H5           2.7330    -2.0670     2.9500 hc         1 CJQ       0.065200
     35 H6          -2.4250    -0.5110     0.1710 h1         1 CJQ       0.054700
     36 H7          -2.2110     1.9500     0.1880 hc         1 CJQ       0.015950
     37 H8          -2.3220     1.9460     1.9570 hc         1 CJQ       0.015950
     38 H9          -4.5120     2.4590     0.9340 hc         1 CJQ       0.034200
     39 H10         -4.4550     0.9260     0.0470 hc         1 CJQ       0.034200
     40 H11         -4.4310     1.2220     3.0710 h1         1 CJQ       0.036700
     41 H12         -4.6430    -1.2400     3.0550 hc         1 CJQ       0.034200
     42 H13         -4.5330    -1.2360     1.2860 hc         1 CJQ       0.034200
     43 H14         -2.3990    -0.2180     3.1960 hc         1 CJQ       0.015950
     44 H15         -2.3430    -1.7500     2.3070 hc         1 CJQ       0.015950
     45 H18         -6.5120    -0.7850     3.5080 h1         1 CJQ       0.018950
     46 H19         -6.4830     0.8690     4.1460 h1         1 CJQ       0.018950
     47 H20          2.2010    -2.9110     5.6640 hn         1 CJQ       0.247467
     48 H21          0.7570    -2.2730     6.0880 hn         1 CJQ       0.247467
     49 H22          5.3380     0.7020     1.8810 hc         1 CJQ       0.031200
     50 H23          4.9030    -0.9980     2.1970 hc         1 CJQ       0.031200
     51 H24         -0.5350     0.0010    -3.2310 h5         1 CJQ       0.013100
     52 H26         -8.4870     1.0010     0.6460 h1         1 CJQ       0.016950
     53 H27         -8.5330    -0.6640     0.0400 h1         1 CJQ       0.016950
     54 H28         -6.3600    -1.1280     1.0820 h1         1 CJQ       0.018950
     55 H29         -6.2240     0.2850     0.0210 h1         1 CJQ       0.018950
     56 H16         -8.6390     1.3440     3.0770 h1         1 CJQ       0.016950
     57 H231         0.8940    -3.1290     4.7040 hn         1 CJQ       0.247467
     58 H17         -8.7870    -0.0910     4.1070 h1         1 CJQ       0.016950
@<TRIPOS>BOND
     1     1     2 ar  
     2     1    24 ar  
     3     1    25 1   
     4     2     3 1   
     5     2    20 ar  
     6     3     5 1   
     7     3    19 2   
     8     4     5 1   
     9     4    18 1   
    10     4    30 1   
    11     4    31 1   
    12     5     6 1   
    13     5    32 1   
    14     6     7 1   
    15     6    33 1   
    16     6    34 1   
    17     7    16 2   
    18     7    17 1   
    19     8     9 1   
    20     8    13 1   
    21     8    25 1   
    22     8    35 1   
    23     9    10 1   
    24     9    36 1   
    25     9    37 1   
    26    10    11 1   
    27    10    38 1   
    28    10    39 1   
    29    11    12 1   
    30    11    26 1   
    31    11    40 1   
    32    12    13 1   
    33    12    41 1   
    34    12    42 1   
    35    13    43 1   
    36    13    44 1   
    37    14    15 1   
    38    14    27 1   
    39    14    56 1   
    40    14    58 1   
    41    15    26 1   
    42    15    45 1   
    43    15    46 1   
    44    17    47 1   
    45    17    48 1   
    46    17    57 1   
    47    18    19 1   
    48    18    49 1   
    49    18    50 1   
    50    19    21 1   
    51    20    21 1   
    52    20    22 ar  
    53    22    23 ar  
    54    23    24 ar  
    55    23    51 1   
    56    26    29 1   
    57    27    28 1   
    58    28    29 1   
    59    28    52 1   
    60    28    53 1   
    61    29    54 1   
    62    29    55 1   
@<TRIPOS>SUBSTRUCTURE
     1 CJQ         1 TEMP              0 ****  ****    0 ROOT
