@<TRIPOS>MOLECULE
molecule
   61    64     1     0     0
SMALL
bcc


@<TRIPOS>ATOM
      1 C1           0.0000     0.0000     0.0000 c3         1 CJT       0.233500
      2 C2           1.5300     0.0000     0.0000 c3         1 CJT      -0.119900
      3 C3           2.0400     0.0000     1.4420 c3         1 CJT      -0.176400
      4 C7           3.2710    -1.7560     3.8350 ca         1 CJT       0.771200
      5 C8           5.2010    -2.8320     3.1690 ca         1 CJT       0.754900
      6 C9           5.0830    -2.1940     5.3760 ca         1 CJT       0.520800
      7 C10          3.8030    -1.6640     5.1310 ca         1 CJT      -0.405400
      8 C11          3.3380    -1.1150     6.4040 cc         1 CJT      -0.122400
      9 C12          4.3130    -1.3350     7.3000 cd         1 CJT      -0.094100
     10 C13          2.0180    -0.4350     6.6610 c3         1 CJT      -0.002500
     11 C14          2.2620     1.0320     7.0210 c3         1 CJT      -0.075900
     12 C15          0.9220     1.7230     7.2820 c3         1 CJT      -0.073900
     13 C16          0.2070     1.0260     8.4400 c3         1 CJT      -0.150700
     14 C19         -1.1130     1.7070     8.6970 c          1 CJT       0.479100
     15 O           -1.4480     2.6560     8.0200 o          1 CJT      -0.393100
     16 N5          -1.9220     1.2610     9.6790 nz         1 CJT      -0.684400
     17 C17         -0.0380    -0.4400     8.0800 c3         1 CJT      -0.073900
     18 C18          1.3020    -1.1310     7.8200 c3         1 CJT      -0.075900
     19 N4           5.3630    -1.9790     6.6970 na         1 CJT      -0.290100
     20 N3           5.7390    -2.7630     4.3660 nb         1 CJT      -0.796000
     21 N2           4.0030    -2.3470     2.8950 nb         1 CJT      -0.828000
     22 N1           2.0180    -1.2500     3.5450 nu         1 CJT      -0.911900
     23 C4           1.5300    -1.2490     2.1640 c3         1 CJT       0.303500
     24 C5          -0.0000    -1.2490     2.1630 c3         1 CJT      -0.176400
     25 C6          -0.5100    -1.2490     0.7210 c3         1 CJT      -0.119900
     26 N           -0.4890    -0.0000    -1.3850 n3         1 CJT      -0.759600
     27 C           -1.9570     0.0000    -1.4240 c3         1 CJT       0.129600
     28 H1          -0.3590     0.8830     0.5140 h1         1 CJT       0.000700
     29 H2           1.0070     0.8870     0.3360 hc         1 CJT       0.068700
     30 H3           2.1300     0.3720    -0.8220 hc         1 CJT       0.068700
     31 H4           1.6760     0.8840     1.9530 hc         1 CJT       0.071200
     32 H5           3.1230    -0.0020     1.4410 hc         1 CJT       0.071200
     33 H6           5.7630    -3.3060     2.3730 h5         1 CJT       0.069100
     34 H7           4.6440    -1.3050     8.3320 h4         1 CJT       0.167000
     35 H8           1.4000    -0.4880     5.7730 hc         1 CJT       0.052700
     36 H9           2.8180     0.7880     7.9180 hc         1 CJT       0.071200
     37 H10          2.8650     1.5410     6.2780 hc         1 CJT       0.071200
     38 H11          1.0970     2.7610     7.5390 hc         1 CJT       0.057950
     39 H12          0.3080     1.6650     6.3920 hc         1 CJT       0.057950
     40 H13          0.8240     1.0800     9.3290 hc         1 CJT       0.096700
     41 H14         -0.1630     1.4530    -1.1240 h1         1 CJT       0.045700
     42 H15          1.1130     1.0640    -2.3720 h1         1 CJT       0.045700
     43 H16         -0.6010     1.5430    -2.8950 h1         1 CJT       0.045700
     44 H17         -2.4720     2.0210    10.0290 hn         1 CJT       0.477133
     45 H18         -2.5270     0.5510     9.3170 hn         1 CJT       0.477133
     46 H19         -0.5430    -0.9330     8.9020 hc         1 CJT       0.057950
     47 H20         -0.6500    -0.4950     7.1880 hc         1 CJT       0.057950
     48 H21          1.9170    -1.0720     8.7100 hc         1 CJT       0.071200
     49 H22          1.1280    -2.1690     7.5630 hc         1 CJT       0.071200
     50 H23          6.2320    -2.2390     7.1180 hn         1 CJT       0.317700
     51 H24          1.4280    -0.9210     4.2840 hn         1 CJT       0.443800
     52 H25          1.8890    -2.1320     1.6500 h1         1 CJT       0.078700
     53 H26          0.5230    -2.1360     1.8270 hc         1 CJT       0.071200
     54 H27         -0.6000    -1.6210     2.9850 hc         1 CJT       0.071200
     55 H28         -1.5930    -1.2470     0.7220 hc         1 CJT       0.068700
     56 H29         -0.1460    -2.1330     0.2100 hc         1 CJT       0.068700
     57 H31         -2.2920     0.3020    -2.4090 h1         1 CJT       0.045700
     58 H32         -2.3250    -0.9960    -1.2080 h1         1 CJT       0.045700
     59 H33         -2.3390     0.6940    -0.6850 h1         1 CJT       0.045700
     60 C20          0.0580     1.1380    -2.1370 c3         1 CJT       0.129600
     61 H53         -1.3680     0.8730    10.4170 hn         1 CJT       0.477133
@<TRIPOS>BOND
     1    20     5 ar
     2    20     6 ar
     3     5    21 ar
     4    19     6 1
     5    19     9 1
     6     6     7 ar
     7    21     4 ar
     8     9     8 2
     9     7     4 ar
    10     7     8 1
    11     4    22 1
    12     8    10 1
    13    22    23 1
    14    23    24 1
    15    23     3 1
    16    10    11 1
    17    10    18 1
    18    11    12 1
    19    24    25 1
    20    18    17 1
    21    25     1 1
    22     3     2 1
    23    60    26 1
    24     2     1 1
    25    12    13 1
    26     1    26 1
    27    17    13 1
    28    13    14 1
    29    26    27 1
    30    14    16 1
    31    14    15 2
    32     1    28 1
    33     2    29 1
    34     2    30 1
    35     3    31 1
    36     3    32 1
    37     5    33 1
    38     9    34 1
    39    10    35 1
    40    11    36 1
    41    11    37 1
    42    12    38 1
    43    12    39 1
    44    13    40 1
    45    60    41 1
    46    60    42 1
    47    60    43 1
    48    16    44 1
    49    16    45 1
    50    17    46 1
    51    17    47 1
    52    18    48 1
    53    18    49 1
    54    19    50 1
    55    22    51 1
    56    23    52 1
    57    24    53 1
    58    24    54 1
    59    25    55 1
    60    25    56 1
    61    27    57 1
    62    27    58 1
    63    27    59 1
    64    61    16 1
@<TRIPOS>SUBSTRUCTURE
     1 CJT         1 TEMP              0 ****  ****    0 ROOT
