@<TRIPOS>MOLECULE
molecule
   47    50     1     0     0
SMALL
bcc


@<TRIPOS>ATOM
      1 O5'          0.0000     0.0000     0.0000 os         1 CJW      -0.377600
      2 C5'          1.4290     0.0000     0.0000 c3         1 CJW       0.142100
      3 C4'          1.9370     0.0000     1.4440 c3         1 CJW       0.101100
      4 C3'          1.3730     1.2220     2.1760 c3         1 CJW       0.105100
      5 C2'         -0.1560     1.1880     2.0990 c3         1 CJW       0.114100
      6 C1'         -0.5840     1.1420     0.6290 c3         1 CJW       0.132800
      7 C1          -2.0850     1.0490     0.5460 cc         1 CJW       0.454800
      8 O2'         -0.6910     2.3610     2.7150 oh         1 CJW      -0.601800
      9 O3'          1.7840     1.1910     3.5450 oh         1 CJW      -0.604800
     10 O4'          3.3660     0.0570     1.4480 oh         1 CJW      -0.607800
     11 C6'          1.9390    -1.2500    -0.7210 c3         1 CJW       0.152400
     12 O6'          1.5620    -1.1920    -2.0980 oh         1 CJW      -0.597800
     13 N5          -2.8300     0.1430     1.1220 nd         1 CJW      -0.743000
     14 C4          -4.1190     0.3650     0.8340 cd         1 CJW       0.656500
     15 N3          -4.2030     1.4280     0.0640 nc         1 CJW      -0.544800
     16 N2          -2.8910     1.8890    -0.1290 na         1 CJW      -0.168400
     17 C6          -5.2640    -0.4530     1.3070 ca         1 CJW      -0.150500
     18 C11         -5.0310    -1.5640     2.1320 ca         1 CJW      -0.117000
     19 C10         -6.0610    -2.3280     2.5780 ca         1 CJW      -0.126000
     20 C9          -7.3830    -2.0110     2.2120 ca         1 CJW      -0.057000
     21 C8          -7.6290    -0.8900     1.3770 ca         1 CJW      -0.063000
     22 C7          -6.5500    -0.1110     0.9330 ca         1 CJW      -0.077000
     23 C15         -8.4610    -2.7870     2.6590 ca         1 CJW      -0.097000
     24 C14         -9.7500    -2.4470     2.2800 ca         1 CJW      -0.054600
     25 C13         -9.9810    -1.3340     1.4520 ca         1 CJW      -0.049000
     26 C12         -8.9500    -0.5700     1.0090 ca         1 CJW      -0.181000
     27 C16        -10.8890    -3.2610     2.7490 c          1 CJW       0.878200
     28 O18        -12.1450    -2.9360     2.3830 o          1 CJW      -0.831800
     29 O17        -10.6950    -4.2250     3.4630 o          1 CJW      -0.831800
     30 H1           1.7880     0.8870    -0.5070 h1         1 CJW       0.057700
     31 H2           1.6050    -0.9030     1.9420 h1         1 CJW       0.063700
     32 H3           1.7380     2.1250     1.7030 h1         1 CJW       0.054700
     33 H4          -0.5230     0.3060     2.6090 h1         1 CJW       0.084700
     34 H5          -0.2450     2.0410     0.1290 h1         1 CJW       0.049700
     35 H6          -0.8850     2.1800     3.6200 ho         1 CJW       0.421000
     36 H7           2.3200     1.9440     3.7290 ho         1 CJW       0.411000
     37 H8           3.7050    -0.6000     2.0330 ho         1 CJW       0.411000
     38 H9           1.5070    -2.1320    -0.2650 h1         1 CJW       0.037700
     39 H10          3.0190    -1.2960    -0.6440 h1         1 CJW       0.037700
     40 H11          2.0700    -1.8160    -2.5900 ho         1 CJW       0.401000
     41 H13         -4.0160    -1.8160     2.4170 ha         1 CJW       0.132000
     42 H14         -5.8650    -3.1830     3.2150 ha         1 CJW       0.127000
     43 H15         -6.7320     0.8140     0.4000 ha         1 CJW       0.135000
     44 H16         -7.9530    -3.5390     3.2510 ha         1 CJW       0.142000
     45 H17        -10.8550    -0.8600     1.0200 ha         1 CJW       0.142000
     46 H18         -9.0670     0.2920     0.3640 ha         1 CJW       0.113000
     47 H12         -2.5990     2.5700    -0.8030 hn         1 CJW       0.321700
@<TRIPOS>BOND
     1     9     4 1
     2    10     3 1
     3     4     3 1
     4     4     5 1
     5     3     2 1
     6     8     5 1
     7     5     6 1
     8    12    11 1
     9     2    11 1
    10     2     1 1
    11     6     1 1
    12     6     7 1
    13    16     7 1
    14    16    15 1
    15     7    13 2
    16    15    14 2
    17    13    14 1
    18    14    17 1
    19    17    22 ar
    20    17    18 ar
    21    22    21 ar
    22    18    19 ar
    23    21    26 ar
    24    21    20 ar
    25    26    25 ar
    26    19    20 ar
    27    20    23 ar
    28    25    24 ar
    29    23    24 ar
    30    24    27 1
    31    27    29 1
    32    27    28 1
    33     2    30 1
    34     3    31 1
    35     4    32 1
    36     5    33 1
    37     6    34 1
    38     8    35 1
    39     9    36 1
    40    10    37 1
    41    11    38 1
    42    11    39 1
    43    12    40 1
    44    18    41 1
    45    19    42 1
    46    22    43 1
    47    23    44 1
    48    25    45 1
    49    26    46 1
    50    16    47 1
@<TRIPOS>SUBSTRUCTURE
     1 CJW         1 TEMP              0 ****  ****    0 ROOT
