@<TRIPOS>MOLECULE
molecule
   44    47     1     0     0
SMALL
bcc


@<TRIPOS>ATOM
      1 C4           0.0000     0.0000     0.0000 ca         1 CJY      -0.142000
      2 C5           0.7520     1.9130    10.9300 ca         1 CJY      -0.076000
      3 C6           0.6780     5.5830    11.2580 ca         1 CJY      -0.138000
      4 C7           1.2560     5.3050     8.5390 ca         1 CJY      -0.077000
      5 C8          -0.0530     0.0120     2.3910 ca         1 CJY      -0.092000
      6 C10          1.3780     0.0000     0.0000 ca         1 CJY      -0.141000
      7 C13          1.0930     4.1560     9.3290 ca         1 CJY      -0.061000
      8 C15          2.2980    -0.0140     3.4670 cc         1 CJY      -0.171400
      9 C17          1.2080     2.8650     8.7740 ca         1 CJY       0.179100
     10 C20          1.5800     1.3690     6.9650 c3         1 CJY       0.131400
     11 C1           0.8470     6.6740    10.4630 ca         1 CJY      -0.117000
     12 C2           1.1390     6.5360     9.1080 ca         1 CJY      -0.158000
     13 C3          -0.7080     0.0060     1.1940 ca         1 CJY      -0.175000
     14 C9           0.6290     3.1450    11.4960 ca         1 CJY      -0.181000
     15 C11          1.0420     1.7700     9.5760 ca         1 CJY      -0.248000
     16 C12          0.7980     4.2960    10.7070 ca         1 CJY       0.000000
     17 C14          1.3470     0.0000     2.4190 ca         1 CJY      -0.089800
     18 C16          2.0690     0.0000     1.2090 ca         1 CJY      -0.066200
     19 C23          3.5360     0.0000     2.9030 cd         1 CJY      -0.043300
     20 C18          1.9960    -0.0380     4.9430 c3         1 CJY       0.008800
     21 C19          1.8880     1.3950     5.4660 c3         1 CJY      -0.071400
     22 N22          3.4060     0.0000     1.5270 na         1 CJY      -0.149400
     23 O25          5.9760     0.0070     2.9650 o          1 CJY      -0.825300
     24 O26          4.8070    -0.0300     4.8540 o          1 CJY      -0.825300
     25 O21          1.4790     2.7090     7.4530 os         1 CJY      -0.324900
     26 H1          -0.5360    -0.0050    -0.9410 ha         1 CJY       0.108000
     27 H4           1.4830     5.2130     7.4840 ha         1 CJY       0.152000
     28 H5          -0.6150     0.0170     3.3170 ha         1 CJY       0.117000
     29 H6           1.9210    -0.0050    -0.9370 ha         1 CJY       0.111000
     30 H7           0.6430     0.8530     7.1320 h1         1 CJY       0.036700
     31 H8           2.3760     0.8530     7.4880 h1         1 CJY       0.036700
     32 H9           0.7590     7.6650    10.8910 ha         1 CJY       0.117000
     33 H10          1.2690     7.4210     8.4970 ha         1 CJY       0.124000
     34 H11         -1.7910     0.0060     1.1760 ha         1 CJY       0.107000
     35 H12          0.4030     3.2380    12.5510 ha         1 CJY       0.123000
     36 H13          1.1340     0.7780     9.1520 ha         1 CJY       0.142000
     37 H14          1.0590    -0.5550     5.1110 hc         1 CJY       0.052200
     38 H15          2.7910    -0.5550     5.4660 hc         1 CJY       0.052200
     39 H16          1.0920     1.9120     4.9430 hc         1 CJY       0.060200
     40 H17          2.8250     1.9120     5.2990 hc         1 CJY       0.060200
     41 H18          4.1620     0.0090     0.8710 hn         1 CJY       0.310700
     42 C24          4.8070    -0.0080     3.6390 c          1 CJY       0.895800
     43 H2           0.6250     1.0300    11.5440 ha         1 CJY       0.121000
     44 H3           0.4520     5.7060    12.3110 ha         1 CJY       0.125000
@<TRIPOS>BOND
     1    14     2 ar
     2    14    16 ar
     3     3    16 ar
     4     3    11 ar
     5     2    15 ar
     6    16     7 ar
     7    11    12 ar
     8    15     9 ar
     9     7     9 ar
    10     7     4 ar
    11    12     4 ar
    12     9    25 1
    13    25    10 1
    14    13     1 ar
    15    13     5 ar
    16     1     6 ar
    17    10    21 1
    18     5    17 ar
    19     6    18 ar
    20    17    18 ar
    21    17     8 1
    22    21    20 1
    23    18    22 1
    24     8    20 1
    25     8    19 2
    26    22    19 1
    27    19    42 1
    28    42    24 1
    29    42    23 1
    30     1    26 1
    31     2    43 1
    32     3    44 1
    33     4    27 1
    34     5    28 1
    35     6    29 1
    36    10    30 1
    37    10    31 1
    38    11    32 1
    39    12    33 1
    40    13    34 1
    41    14    35 1
    42    15    36 1
    43    20    37 1
    44    20    38 1
    45    21    39 1
    46    21    40 1
    47    22    41 1
@<TRIPOS>SUBSTRUCTURE
     1 CJY         1 TEMP              0 ****  ****    0 ROOT
