@<TRIPOS>MOLECULE
CJZ
   27    28     1     0     0
SMALL
bcc


@<TRIPOS>ATOM
      1 OAA          0.0000     0.0000     0.0000 o          1 CJZ      -0.875300
      2 OAB          1.9550    -0.0380    -1.0510 o          1 CJZ      -0.875300
      3 OAC          4.2150     5.0220    -2.7430 oh         1 CJZ      -0.484100
      4 ClAD         5.9240     2.9260    -3.9290 cl         1 CJZ      -0.055400
      5 ClAE         2.4780     5.0740    -0.3540 cl         1 CJZ      -0.055400
      6 CAF          3.4710     0.1340     3.6780 ca         1 CJZ      -0.129000
      7 CAG          2.0920     0.0000     3.6770 ca         1 CJZ      -0.132000
      8 CAH          4.1650     0.2240     2.4880 ca         1 CJZ      -0.136000
      9 CAI          1.3970    -0.0440     2.4880 ca         1 CJZ      -0.060000
     10 CAJ          4.9540     1.5880    -1.7860 ca         1 CJZ      -0.166500
     11 CAK          3.4350     2.5490    -0.1890 ca         1 CJZ      -0.166500
     12 CAM          1.3480     0.0000     0.0000 c          1 CJZ       0.966200
     13 CAN          4.1890     1.4710    -0.6330 ca         1 CJZ       0.120600
     14 CAO          4.9640     2.7770    -2.4910 ca         1 CJZ       0.003400
     15 CAP          3.4370     3.7340    -0.9000 ca         1 CJZ       0.003400
     16 CAQ          4.2050     3.8510    -2.0490 ca         1 CJZ       0.030100
     17 CAR          3.4830     0.1760     1.2780 ca         1 CJZ      -0.013400
     18 CAS          2.0840     0.0460     1.2750 ca         1 CJZ      -0.095600
     19 HOAC         4.9040     5.5760    -2.4140 ho         1 CJZ       0.381000
     20 HAF          4.0080     0.1690     4.6180 ha         1 CJZ       0.084000
     21 HAG          1.5570    -0.0700     4.6160 ha         1 CJZ       0.086000
     22 HAH          5.2430     0.3290     2.4970 ha         1 CJZ       0.091000
     23 HAI          0.3180    -0.1490     2.4940 ha         1 CJZ       0.133000
     24 HAJ          5.5420     0.7470    -2.1330 ha         1 CJZ       0.127500
     25 HAK          2.8380     2.4590     0.7110 ha         1 CJZ       0.127500
     26 HNAL         4.6990    -0.5190    -0.2560 hn         1 CJZ       0.275800
     27 NAL          4.1780     0.2670     0.0810 nu         1 CJZ      -0.184000
@<TRIPOS>BOND
     1     1    12 1   
     2     2    12 1   
     3     3    16 1   
     4     3    19 1   
     5     4    14 1   
     6     5    15 1   
     7     6     7 ar  
     8     6     8 ar  
     9     6    20 1   
    10     7     9 ar  
    11     7    21 1   
    12     8    17 ar  
    13     8    22 1   
    14     9    18 ar  
    15     9    23 1   
    16    10    13 ar  
    17    10    14 ar  
    18    10    24 1   
    19    11    13 ar  
    20    11    15 ar  
    21    11    25 1   
    22    12    18 1   
    23    13    27 1   
    24    14    16 ar  
    25    15    16 ar  
    26    17    18 ar  
    27    17    27 1   
    28    26    27 1   
@<TRIPOS>SUBSTRUCTURE
     1 CJZ         1 TEMP              0 ****  ****    0 ROOT
