@<TRIPOS>MOLECULE
molecule
   19    20     1     0     0
SMALL
bcc


@<TRIPOS>ATOM
      1 Cl7A         0.0000     0.0000     0.0000 cl         1 CK1      -0.017400
      2 C3A          1.7360     0.0000     0.0000 cc         1 CK1       0.089300
      3 C4A          2.5830     0.0000     1.0520 cd         1 CK1      -0.129000
      4 S2A          2.8550    -0.0000    -1.3900 ss         1 CK1      -0.117800
      5 C1A          4.3930     0.0050    -0.4840 cc         1 CK1       0.102300
      6 Cl6A         6.0190     0.0080    -1.0920 cl         1 CK1      -0.014400
      7 C5A          3.9570    -0.0000     0.8150 cd         1 CK1      -0.173500
      8 C4           4.9210     0.0010     1.9380 ca         1 CK1       0.536800
      9 N3           4.6890     0.7310     3.0280 nb         1 CK1      -0.746000
     10 C5           6.0880    -0.7690     1.8730 ca         1 CK1      -0.382600
     11 C6           6.9580    -0.7360     2.9460 ca         1 CK1       0.470200
     12 N1           6.6660     0.0170     3.9960 nb         1 CK1      -0.753000
     13 C2           5.5530     0.7370     4.0310 ca         1 CK1       0.933900
     14 N7           5.2860     1.5100     5.1470 nv         1 CK1      -1.049500
     15 H4A          2.2010    -0.0040     2.0650 ha         1 CK1       0.175000
     16 H5           6.3030    -1.3770     1.0030 ha         1 CK1       0.154000
     17 H6           7.8700    -1.3210     2.9290 h4         1 CK1       0.030100
     18 HN71         5.3500     2.5070     5.0920 hn         1 CK1       0.446300
     19 HN72         5.0420     1.0710     6.0130 hn         1 CK1       0.446300
@<TRIPOS>BOND
     1     1     2 1
     2     2     3 2
     3     2     4 1
     4     3     7 1
     5     3    15 1
     6     4     5 1
     7     5     6 1
     8     5     7 2
     9     7     8 1
    10     8     9 ar
    11     8    10 ar
    12     9    13 ar
    13    10    11 ar
    14    10    16 1
    15    11    12 ar
    16    11    17 1
    17    12    13 ar
    18    13    14 1
    19    14    18 1
    20    14    19 1
@<TRIPOS>SUBSTRUCTURE
     1 CK1         1 TEMP              0 ****  ****    0 ROOT
