@<TRIPOS>MOLECULE
CK2
   24    25     1     0     0
SMALL
bcc


@<TRIPOS>ATOM
      1 C7A          0.0000     0.0000     0.0000 c3         1 CK2       0.017600
      2 C3A          1.5060     0.0000     0.0000 cc         1 CK2       0.488700
      3 S4A          2.5950     0.0000     1.3530 ss         1 CK2      -0.359300
      4 N2A          2.3310    -0.0060    -1.0240 nd         1 CK2      -0.595000
      5 C1A          3.6320    -0.0030    -0.8600 cd         1 CK2       0.369600
      6 C6A          4.5630    -0.0050    -2.0450 c3         1 CK2      -0.029400
      7 C5A          4.1210    -0.0020     0.4220 cc         1 CK2      -0.161900
      8 C4           5.5170    -0.0030     0.8990 ca         1 CK2       0.541800
      9 N3           6.5290    -0.0080     0.0310 nb         1 CK2      -0.625000
     10 C5           5.8000    -0.0010     2.2710 ca         1 CK2      -0.346600
     11 C6           7.1230    -0.0010     2.6690 ca         1 CK2       0.451200
     12 N1           8.0780    -0.0030     1.7500 nb         1 CK2      -0.635000
     13 C2           7.7810    -0.0050     0.4600 ca         1 CK2       0.717900
     14 N7           8.8100    -0.0050    -0.4670 nv         1 CK2      -0.640500
     15 H7A1        -0.3610     0.8630    -0.5470 hc         1 CK2       0.020700
     16 H7A2        -0.3610    -0.9050    -0.4730 hc         1 CK2       0.020700
     17 H7A3        -0.3610     0.0420     1.0200 hc         1 CK2       0.020700
     18 H6A1         5.1860    -0.8900    -2.0130 hc         1 CK2       0.021700
     19 H6A2         3.9830    -0.0040    -2.9600 hc         1 CK2       0.021700
     20 H6A3         5.1890     0.8790    -2.0140 hc         1 CK2       0.021700
     21 H5           5.0010     0.0010     3.0020 ha         1 CK2       0.133000
     22 H6           7.3770    -0.0000     3.7220 h4         1 CK2      -0.014900
     23 HN71         9.1910     0.8610    -0.7920 hn         1 CK2       0.280800
     24 HN72         9.1910    -0.8720    -0.7910 hn         1 CK2       0.280800
@<TRIPOS>BOND
     1     1     2 1   
     2     1    15 1   
     3     1    16 1   
     4     1    17 1   
     5     2     3 1   
     6     2     4 2   
     7     3     7 1   
     8     4     5 1   
     9     5     6 1   
    10     5     7 2   
    11     6    18 1   
    12     6    19 1   
    13     6    20 1   
    14     7     8 1   
    15     8     9 ar  
    16     8    10 ar  
    17     9    13 ar  
    18    10    11 ar  
    19    10    21 1   
    20    11    12 ar  
    21    11    22 1   
    22    12    13 ar  
    23    13    14 1   
    24    14    23 1   
    25    14    24 1   
@<TRIPOS>SUBSTRUCTURE
     1 CK2         1 TEMP              0 ****  ****    0 ROOT
