@<TRIPOS>MOLECULE
CK3
   28    29     1     0     0
SMALL
bcc


@<TRIPOS>ATOM
      1 C7A          0.0000     0.0000     0.0000 c3         1 CK3       0.016600
      2 C3A          1.5070     0.0000     0.0000 cc         1 CK3       0.491700
      3 S4A          2.5950     0.0000     1.3540 ss         1 CK3      -0.352300
      4 N2A          2.3320    -0.0060    -1.0240 nd         1 CK3      -0.597000
      5 C1A          3.6330    -0.0010    -0.8590 cd         1 CK3       0.372600
      6 C6A          4.5640    -0.0010    -2.0440 c3         1 CK3      -0.029400
      7 C5A          4.1210    -0.0010     0.4240 cc         1 CK3      -0.166900
      8 C4           5.5170    -0.0000     0.9010 ca         1 CK3       0.583800
      9 N3           6.5300    -0.0060     0.0350 nb         1 CK3      -0.673000
     10 C5           5.8000     0.0000     2.2740 ca         1 CK3      -0.394600
     11 C6           7.1220     0.0010     2.6730 ca         1 CK3       0.493200
     12 N1           8.0780    -0.0000     1.7540 nb         1 CK3      -0.690000
     13 C2           7.7820    -0.0000     0.4630 ca         1 CK3       0.705900
     14 N7           8.8130    -0.0010    -0.4650 nu         1 CK3      -0.381900
     15 C8          10.1230     0.1050    -0.0410 c2         1 CK3       0.474100
     16 N9          11.0750     0.2040    -0.9080 n2         1 CK3      -0.487200
     17 O10         10.7700     0.3120    -2.2870 oh         1 CK3      -0.388500
     18 H7A1        -0.3610    -0.9240    -0.4360 hc         1 CK3       0.020700
     19 H7A2        -0.3610     0.8390    -0.5820 hc         1 CK3       0.020700
     20 H7A3        -0.3610     0.0840     1.0180 hc         1 CK3       0.020700
     21 H6A1         3.9840     0.0010    -2.9590 hc         1 CK3       0.021367
     22 H6A2         5.1900     0.8820    -2.0110 hc         1 CK3       0.021367
     23 H6A3         5.1870    -0.8870    -2.0130 hc         1 CK3       0.021367
     24 H5           5.0000     0.0010     3.0050 ha         1 CK3       0.137000
     25 H6           7.3760     0.0010     3.7260 h4         1 CK3      -0.014900
     26 HN7          8.6050    -0.0480    -1.4430 hn         1 CK3       0.310800
     27 H8          10.3580     0.0230     1.0130 h5         1 CK3       0.038800
     28 H10         11.5690     0.4090    -2.7790 ho         1 CK3       0.423000
@<TRIPOS>BOND
     1     1     2 1   
     2     1    18 1   
     3     1    19 1   
     4     1    20 1   
     5     2     3 1   
     6     2     4 2   
     7     3     7 1   
     8     4     5 1   
     9     5     6 1   
    10     5     7 2   
    11     6    21 1   
    12     6    22 1   
    13     6    23 1   
    14     7     8 1   
    15     8     9 ar  
    16     8    10 ar  
    17     9    13 ar  
    18    10    11 ar  
    19    10    24 1   
    20    11    12 ar  
    21    11    25 1   
    22    12    13 ar  
    23    13    14 1   
    24    14    15 1   
    25    14    26 1   
    26    15    16 2   
    27    15    27 1   
    28    16    17 1   
    29    17    28 1   
@<TRIPOS>SUBSTRUCTURE
     1 CK3         1 TEMP              0 ****  ****    0 ROOT
