@<TRIPOS>MOLECULE
CK4
   37    39     1     0     0
SMALL
bcc


@<TRIPOS>ATOM
      1 F8B          0.0000     0.0000     0.0000 f          1 CK4      -0.209633
      2 C7B          1.3990     0.0000     0.0000 c3         1 CK4       0.642200
      3 F1B          1.8660     0.0000     1.3180 f          1 CK4      -0.209633
      4 F9B          1.8640     1.1420    -0.6600 f          1 CK4      -0.209633
      5 C4B          1.9010    -1.2310    -0.7100 ca         1 CK4      -0.234300
      6 C5B          3.2600    -1.4480    -0.8360 ca         1 CK4      -0.020500
      7 C6B          3.7230    -2.5760    -1.4860 ca         1 CK4      -0.133000
      8 C3B          1.0010    -2.1400    -1.2350 ca         1 CK4      -0.020500
      9 C2B          1.4580    -3.2670    -1.8910 ca         1 CK4      -0.133000
     10 C1B          2.8210    -3.4920    -2.0140 ca         1 CK4       0.036600
     11 N7           3.2870    -4.6340    -2.6720 nu         1 CK4      -0.289300
     12 C2           2.5750    -5.8180    -2.5890 ca         1 CK4       0.706900
     13 N1           1.5180    -5.8830    -1.7940 nb         1 CK4      -0.691000
     14 C6           0.8100    -6.9970    -1.6860 ca         1 CK4       0.493200
     15 C5           1.1850    -8.1080    -2.4160 ca         1 CK4      -0.400600
     16 N3           2.9730    -6.8600    -3.3020 nb         1 CK4      -0.684000
     17 C4           2.3070    -8.0140    -3.2480 ca         1 CK4       0.585800
     18 C5A          2.7490    -9.1730    -4.0470 cc         1 CK4      -0.165900
     19 S4A          2.0540   -10.8150    -4.1580 ss         1 CK4      -0.349300
     20 C1A          3.8070    -9.2900    -4.9130 cd         1 CK4       0.371600
     21 C6A          4.7310    -8.1280    -5.1700 c3         1 CK4      -0.028400
     22 N2A          3.9930   -10.4450    -5.5070 nd         1 CK4      -0.598000
     23 C3A          3.1910   -11.4660    -5.2960 cc         1 CK4       0.490700
     24 C7A          3.2510   -12.8510    -5.8890 c3         1 CK4       0.017600
     25 H5B          3.9620    -0.7340    -0.4250 ha         1 CK4       0.116500
     26 H6B          4.7880    -2.7470    -1.5830 ha         1 CK4       0.127000
     27 H3B         -0.0640    -1.9650    -1.1390 ha         1 CK4       0.116500
     28 H2B          0.7520    -3.9790    -2.3010 ha         1 CK4       0.127000
     29 HN7          4.1160    -4.5860    -3.2310 hn         1 CK4       0.297800
     30 H6          -0.0530    -7.0360    -1.0320 h4         1 CK4      -0.013900
     31 H5           0.6220    -9.0310    -2.3470 ha         1 CK4       0.137000
     32 H6A1         5.2000    -7.8270    -4.2410 hc         1 CK4       0.020367
     33 H6A2         5.4940    -8.4240    -5.8800 hc         1 CK4       0.020367
     34 H6A3         4.1640    -7.2980    -5.5730 hc         1 CK4       0.020367
     35 H7A1         3.2400   -12.7820    -6.9700 hc         1 CK4       0.020700
     36 H7A2         4.1610   -13.3420    -5.5670 hc         1 CK4       0.020700
     37 H7A3         2.3940   -13.4230    -5.5550 hc         1 CK4       0.020700
@<TRIPOS>BOND
     1     1     2 1   
     2     2     3 1   
     3     2     4 1   
     4     2     5 1   
     5     5     6 ar  
     6     5     8 ar  
     7     6     7 ar  
     8     6    25 1   
     9     7    10 ar  
    10     7    26 1   
    11     8     9 ar  
    12     8    27 1   
    13     9    10 ar  
    14     9    28 1   
    15    10    11 1   
    16    11    12 1   
    17    11    29 1   
    18    12    13 ar  
    19    12    16 ar  
    20    13    14 ar  
    21    14    15 ar  
    22    14    30 1   
    23    15    17 ar  
    24    15    31 1   
    25    16    17 ar  
    26    17    18 1   
    27    18    19 1   
    28    18    20 2   
    29    19    23 1   
    30    20    21 1   
    31    20    22 1   
    32    21    32 1   
    33    21    33 1   
    34    21    34 1   
    35    22    23 2   
    36    23    24 1   
    37    24    35 1   
    38    24    36 1   
    39    24    37 1   
@<TRIPOS>SUBSTRUCTURE
     1 CK4         1 TEMP              0 ****  ****    0 ROOT
