@<TRIPOS>MOLECULE
molecule
   35    37     1     0     0
SMALL
bcc


@<TRIPOS>ATOM
      1 O7B          0.0000     0.0000     0.0000 oh         1 CK5      -0.520100
      2 C3B          1.3590     0.0000     0.0000 ca         1 CK5       0.120100
      3 C2B          2.0520     0.0000     1.2010 ca         1 CK5      -0.151000
      4 C1B          3.4390     0.0050     1.1970 ca         1 CK5       0.174600
      5 C6B          4.1290    -0.0010    -0.0080 ca         1 CK5      -0.174000
      6 C5B          3.4350    -0.0060    -1.2030 ca         1 CK5      -0.098000
      7 C4B          2.0520    -0.0060    -1.2010 ca         1 CK5      -0.176000
      8 N7           4.1420     0.0100     2.4060 nu         1 CK5      -0.756300
      9 C2           3.6260     0.6810     3.5040 ca         1 CK5       0.941900
     10 N1           2.5240     1.4000     3.3610 nb         1 CK5      -0.786000
     11 C6           2.0000     2.0560     4.3860 ca         1 CK5       0.500200
     12 N3           4.2520     0.5870     4.6660 nb         1 CK5      -0.795000
     13 C4           3.7790     1.2150     5.7420 ca         1 CK5       0.615800
     14 C5           2.6140     1.9850     5.6200 ca         1 CK5      -0.428600
     15 C5A          4.4730     1.1080     7.0400 cc         1 CK5      -0.203900
     16 C1A          5.6120     0.4190     7.3710 cd         1 CK5       0.426600
     17 C6A          6.3570    -0.3900     6.3390 c3         1 CK5      -0.115400
     18 S4A          4.0670     1.8410     8.6180 ss         1 CK5      -0.253300
     19 C3A          5.3950     1.1850     9.5220 cc         1 CK5       0.506700
     20 N2A          6.0380     0.4880     8.6090 nd         1 CK5      -0.730000
     21 C7A          5.7310     1.3700    10.9790 c3         1 CK5      -0.102400
     22 H7B         -0.3140    -0.8880    -0.0410 ho         1 CK5       0.417000
     23 H2B          1.5120     0.0050     2.1400 ha         1 CK5       0.167000
     24 H6B          5.2130     0.0010    -0.0120 ha         1 CK5       0.132000
     25 H5B          3.9740    -0.0110    -2.1420 ha         1 CK5       0.134000
     26 H4B          1.5100    -0.0110    -2.1390 ha         1 CK5       0.139000
     27 HN7          5.0010    -0.4960     2.4880 hn         1 CK5       0.466800
     28 H6           1.0970     2.6420     4.2570 h4         1 CK5       0.034100
     29 H5           2.2040     2.5100     6.4740 ha         1 CK5       0.150000
     30 H6A1         7.2200    -0.8560     6.7990 hc         1 CK5       0.056700
     31 H6A2         5.7030    -1.1560     5.9400 hc         1 CK5       0.056700
     32 H6A3         6.6820     0.2610     5.5360 hc         1 CK5       0.056700
     33 H7A1         5.7460     0.4050    11.4710 hc         1 CK5       0.063367
     34 H7A2         4.9850     2.0010    11.4450 hc         1 CK5       0.063367
     35 H7A3         6.7050     1.8360    11.0680 hc         1 CK5       0.063367
@<TRIPOS>BOND
     1     1     2 1
     2     1    22 1
     3     2     3 ar
     4     2     7 ar
     5     3     4 ar
     6     3    23 1
     7     4     5 ar
     8     4     8 1
     9     5     6 ar
    10     5    24 1
    11     6     7 ar
    12     6    25 1
    13     7    26 1
    14     8     9 1
    15     8    27 1
    16     9    10 ar
    17     9    12 ar
    18    10    11 ar
    19    11    14 ar
    20    11    28 1
    21    12    13 ar
    22    13    14 ar
    23    13    15 1
    24    14    29 1
    25    15    16 2
    26    15    18 1
    27    16    17 1
    28    16    20 1
    29    17    30 1
    30    17    31 1
    31    17    32 1
    32    18    19 1
    33    19    20 2
    34    19    21 1
    35    21    33 1
    36    21    34 1
    37    21    35 1
@<TRIPOS>SUBSTRUCTURE
     1 CK5         1 TEMP              0 ****  ****    0 ROOT
