@<TRIPOS>MOLECULE
molecule
   37    39     1     0     0
SMALL
bcc


@<TRIPOS>ATOM
      1 C6A          0.0000     0.0000     0.0000 c3         1 CK6      -0.117400
      2 C1A          1.5060     0.0000     0.0000 cc         1 CK6       0.480600
      3 N2A          2.1810     0.0000     1.1260 nc         1 CK6      -0.813000
      4 C3A          3.5030     0.0070     1.1370 cd         1 CK6       0.774300
      5 N7A          4.3610     0.0110     2.2200 nu         1 CK6      -0.877900
      6 C8A          3.8230     0.0180     3.5810 c3         1 CK6       0.231100
      7 C5A          2.2110    -0.0040    -1.1760 cd         1 CK6      -0.251900
      8 S4A          3.8870    -0.0000    -0.5570 ss         1 CK6      -0.287300
      9 C4           1.7210    -0.0110    -2.5660 ca         1 CK6       0.632800
     10 C5           2.6240    -0.0160    -3.6400 ca         1 CK6      -0.435600
     11 N3           0.4130    -0.0180    -2.8240 nb         1 CK6      -0.802000
     12 C2          -0.0260    -0.0180    -4.0720 ca         1 CK6       0.943900
     13 N1           0.8050    -0.0230    -5.1040 nb         1 CK6      -0.801000
     14 C6           2.1180    -0.0210    -4.9230 ca         1 CK6       0.498200
     15 N7          -1.3900    -0.0190    -4.3070 nu         1 CK6      -0.756300
     16 C1B         -1.8770     0.0910    -5.6160 ca         1 CK6       0.156600
     17 C2B         -1.1930     0.8580    -6.5470 ca         1 CK6      -0.134000
     18 C3B         -1.6700     0.9630    -7.8390 ca         1 CK6      -0.136000
     19 C6B         -3.0460    -0.5630    -5.9800 ca         1 CK6      -0.134000
     20 C5B         -3.5250    -0.4530    -7.2710 ca         1 CK6      -0.136000
     21 C4B         -2.8380     0.3100    -8.2040 ca         1 CK6       0.081100
     22 O7B         -3.3100     0.4170    -9.4740 oh         1 CK6      -0.522100
     23 H6A1        -0.3610    -0.8880    -0.5040 hc         1 CK6       0.057367
     24 H6A2        -0.3610     0.8810    -0.5170 hc         1 CK6       0.057367
     25 H6A3        -0.3610     0.0070     1.0210 hc         1 CK6       0.057367
     26 H7A          5.3510     0.0100     2.0740 hn         1 CK6       0.458800
     27 H8A1         4.6390     0.0230     4.2930 h1         1 CK6       0.047033
     28 H8A2         3.2130     0.9020     3.7240 h1         1 CK6       0.047033
     29 H8A3         3.2160    -0.8670     3.7340 h1         1 CK6       0.047033
     30 H5           3.6940    -0.0150    -3.4650 ha         1 CK6       0.148000
     31 H6           2.7870    -0.0250    -5.7750 h4         1 CK6       0.028100
     32 HN7         -2.0300    -0.0870    -3.5400 hn         1 CK6       0.465800
     33 H2B         -0.2810     1.3700    -6.2640 ha         1 CK6       0.147000
     34 H3B         -1.1350     1.5610    -8.5670 ha         1 CK6       0.140500
     35 H6B         -3.5830    -1.1590    -5.2520 ha         1 CK6       0.147000
     36 H5B         -4.4370    -0.9640    -7.5550 ha         1 CK6       0.140500
     37 H7B         -2.9440    -0.2720   -10.0040 ho         1 CK6       0.416000
@<TRIPOS>BOND
     1     1     2 1
     2     1    23 1
     3     1    24 1
     4     1    25 1
     5     2     3 1
     6     2     7 2
     7     3     4 2
     8     4     5 1
     9     4     8 1
    10     5     6 1
    11     5    26 1
    12     6    27 1
    13     6    28 1
    14     6    29 1
    15     7     8 1
    16     7     9 1
    17     9    10 ar
    18     9    11 ar
    19    10    14 ar
    20    10    30 1
    21    11    12 ar
    22    12    13 ar
    23    12    15 1
    24    13    14 ar
    25    14    31 1
    26    15    16 1
    27    15    32 1
    28    16    17 ar
    29    16    19 ar
    30    17    18 ar
    31    17    33 1
    32    18    21 ar
    33    18    34 1
    34    19    20 ar
    35    19    35 1
    36    20    21 ar
    37    20    36 1
    38    21    22 1
    39    22    37 1
@<TRIPOS>SUBSTRUCTURE
     1 CK6         1 TEMP              0 ****  ****    0 ROOT
