@<TRIPOS>MOLECULE
molecule
   35    37     1     0     0
SMALL
bcc


@<TRIPOS>ATOM
      1 N7A          0.0000     0.0000     0.0000 nv         1 CK7      -0.987500
      2 C3A          1.3820     0.0000     0.0000 cc         1 CK7       0.764300
      3 N2A          2.2110     0.0000     1.0300 nd         1 CK7      -0.774000
      4 C1A          3.5120    -0.0000     0.8600 cd         1 CK7       0.455600
      5 C6A          4.4480     0.0000     2.0410 c3         1 CK7      -0.117400
      6 S4A          2.4710    -0.0020    -1.3530 ss         1 CK7      -0.286300
      7 C5A          3.9970     0.0030    -0.4230 cc         1 CK7      -0.224900
      8 C4           5.3900     0.0060    -0.9020 ca         1 CK7       0.624800
      9 N3           6.4050     0.0150    -0.0360 nb         1 CK7      -0.795000
     10 C5           5.6720     0.0020    -2.2760 ca         1 CK7      -0.423600
     11 C6           6.9930     0.0050    -2.6770 ca         1 CK7       0.505200
     12 N1           7.9500     0.0090    -1.7590 nb         1 CK7      -0.799000
     13 C2           7.6570     0.0120    -0.4660 ca         1 CK7       0.936900
     14 N7           8.6880     0.0180     0.4580 nu         1 CK7      -0.757300
     15 C1B         10.0140    -0.0960     0.0280 ca         1 CK7       0.164600
     16 C6B         11.0270     0.5610     0.7140 ca         1 CK7      -0.130000
     17 C2B         10.3210    -0.8720    -1.0830 ca         1 CK7      -0.069000
     18 C3B         11.6300    -0.9780    -1.5090 ca         1 CK7      -0.139200
     19 N7B         11.9570    -1.7990    -2.6960 no         1 CK7       0.296200
     20 O8B         13.1120    -1.8980    -3.0690 o          1 CK7      -0.207000
     21 O9B         11.0720    -2.3760    -3.3000 o          1 CK7      -0.207000
     22 C4B         12.6370    -0.3230    -0.8230 ca         1 CK7      -0.096000
     23 C5B         12.3360     0.4450     0.2860 ca         1 CK7      -0.116000
     24 H7A1        -0.5000     0.6440    -0.5800 hn         1 CK7       0.453300
     25 H7A2        -0.5000    -0.6550     0.5680 hn         1 CK7       0.453300
     26 H6A1         5.0770     0.8810     2.0030 hc         1 CK7       0.057367
     27 H6A2         5.0680    -0.8880     2.0110 hc         1 CK7       0.057367
     28 H6A3         3.8720     0.0080     2.9590 hc         1 CK7       0.057367
     29 H5           4.8710    -0.0020    -3.0060 ha         1 CK7       0.153000
     30 H6           7.2450     0.0020    -3.7310 h4         1 CK7       0.037100
     31 HN7          8.4830     0.0770     1.4360 hn         1 CK7       0.470800
     32 H6B         10.7920     1.1630     1.5840 ha         1 CK7       0.143000
     33 H2B          9.5440    -1.4450    -1.5740 ha         1 CK7       0.188000
     34 H4B         13.6640    -0.4100    -1.1580 ha         1 CK7       0.164000
     35 H5B         13.1270     0.9570     0.8210 ha         1 CK7       0.148000
@<TRIPOS>BOND
     1     1     2 1
     2     1    24 1
     3     1    25 1
     4     2     3 2
     5     2     6 1
     6     3     4 1
     7     4     5 1
     8     4     7 2
     9     5    26 1
    10     5    27 1
    11     5    28 1
    12     6     7 1
    13     7     8 1
    14     8     9 ar
    15     8    10 ar
    16     9    13 ar
    17    10    11 ar
    18    10    29 1
    19    11    12 ar
    20    11    30 1
    21    12    13 ar
    22    13    14 1
    23    14    15 1
    24    14    31 1
    25    15    16 ar
    26    15    17 ar
    27    16    23 ar
    28    16    32 1
    29    17    18 ar
    30    17    33 1
    31    18    19 1
    32    18    22 ar
    33    19    20 1
    34    19    21 1
    35    22    23 ar
    36    22    34 1
    37    23    35 1
@<TRIPOS>SUBSTRUCTURE
     1 CK7         1 TEMP              0 ****  ****    0 ROOT
