@<TRIPOS>MOLECULE
molecule
   42    44     1     0     0
SMALL
bcc


@<TRIPOS>ATOM
      1 C6           0.0000     0.0000     0.0000 ca         1 CK8       0.499200
      2 N1           1.3230     0.0000     0.0000 nb         1 CK8      -0.791000
      3 C2           2.0060     0.0000     1.1350 ca         1 CK8       0.945900
      4 N3           1.4010    -0.0060     2.3120 nb         1 CK8      -0.799000
      5 C4           0.0700    -0.0010     2.3890 ca         1 CK8       0.614800
      6 C5          -0.6770    -0.0000     1.2050 ca         1 CK8      -0.434600
      7 C5A         -0.6050    -0.0010     3.7020 cc         1 CK8      -0.197900
      8 C1A         -0.0690    -0.0060     4.9640 cd         1 CK8       0.424600
      9 N2A         -0.8920    -0.0000     5.9850 nd         1 CK8      -0.729000
     10 C3A         -2.1970    -0.0010     5.8190 cc         1 CK8       0.505700
     11 S4A         -2.3500    -0.0010     4.0900 ss         1 CK8      -0.259300
     12 C6A          1.4250    -0.0060     5.1720 c3         1 CK8      -0.115400
     13 C7A         -3.2820    -0.0020     6.8630 c3         1 CK8      -0.102400
     14 N7           3.3900    -0.0000     1.0900 nu         1 CK8      -0.750300
     15 C1B          4.0500    -0.1170    -0.1400 ca         1 CK8       0.100600
     16 C2B          3.4940    -0.8830    -1.1550 ca         1 CK8      -0.097500
     17 C3B          4.1450    -1.0000    -2.3680 ca         1 CK8      -0.190500
     18 C4B          5.3560    -0.3510    -2.5710 ca         1 CK8       0.190600
     19 C5B          5.9140     0.4100    -1.5540 ca         1 CK8      -0.190500
     20 C6B          5.2610     0.5300    -0.3440 ca         1 CK8      -0.097500
     21 N7B          6.0170    -0.4690    -3.7990 nh         1 CK8      -0.744000
     22 C8B          7.2940     0.2150    -4.0140 c3         1 CK8       0.233600
     23 C9B          5.4300    -1.2780    -4.8710 c3         1 CK8       0.233600
     24 H6          -0.5470     0.0000    -0.9350 h4         1 CK8       0.030100
     25 H5          -1.7600     0.0020     1.2330 ha         1 CK8       0.148000
     26 H6A1         1.8530    -0.8900     4.7140 hc         1 CK8       0.056700
     27 H6A2         1.8530     0.8790     4.7180 hc         1 CK8       0.056700
     28 H6A3         1.6410    -0.0090     6.2340 hc         1 CK8       0.056700
     29 H7A1        -3.2310    -0.9200     7.4370 hc         1 CK8       0.062700
     30 H7A2        -4.2490     0.0680     6.3800 hc         1 CK8       0.062700
     31 H7A3        -3.1470     0.8450     7.5250 hc         1 CK8       0.062700
     32 HN7          3.9190     0.0550     1.9380 hn         1 CK8       0.463800
     33 H2B          2.5500    -1.3900    -0.9970 ha         1 CK8       0.141500
     34 H3B          3.7100    -1.5960    -3.1610 ha         1 CK8       0.133000
     35 H5B          6.8590     0.9160    -1.7120 ha         1 CK8       0.133000
     36 H6B          5.6970     1.1250     0.4500 ha         1 CK8       0.141500
     37 H8B1         8.0200    -0.1420    -3.2940 h1         1 CK8       0.033700
     38 H8B2         7.6480     0.0100    -5.0170 h1         1 CK8       0.033700
     39 H8B3         7.1570     1.2820    -3.8900 h1         1 CK8       0.033700
     40 H9B1         6.0780    -1.2520    -5.7390 h1         1 CK8       0.033700
     41 H9B2         4.4580    -0.8780    -5.1340 h1         1 CK8       0.033700
     42 H9B3         5.3200    -2.3010    -4.5330 h1         1 CK8       0.033700
@<TRIPOS>BOND
     1     1     2 ar
     2     1     6 ar
     3     1    24 1
     4     2     3 ar
     5     3     4 ar
     6     3    14 1
     7     4     5 ar
     8     5     6 ar
     9     5     7 1
    10     6    25 1
    11     7     8 2
    12     7    11 1
    13     8     9 1
    14     8    12 1
    15     9    10 2
    16    10    11 1
    17    10    13 1
    18    12    26 1
    19    12    27 1
    20    12    28 1
    21    13    29 1
    22    13    30 1
    23    13    31 1
    24    14    15 1
    25    14    32 1
    26    15    16 ar
    27    15    20 ar
    28    16    17 ar
    29    16    33 1
    30    17    18 ar
    31    17    34 1
    32    18    19 ar
    33    18    21 1
    34    19    20 ar
    35    19    35 1
    36    20    36 1
    37    21    22 1
    38    21    23 1
    39    22    37 1
    40    22    38 1
    41    22    39 1
    42    23    40 1
    43    23    41 1
    44    23    42 1
@<TRIPOS>SUBSTRUCTURE
     1 CK8         1 TEMP              0 ****  ****    0 ROOT
