@<TRIPOS>MOLECULE
CK9
   53    55     1     0     0
SMALL
bcc


@<TRIPOS>ATOM
      1 O27         0.3370    1.0200    0.1060 oh        1 CK9     -0.505100
      2 C24         1.6090    0.4910    0.1250 ca        1 CK9      0.128100
      3 C23         2.3790    0.4460    1.2960 ca        1 CK9     -0.211000
      4 C22         3.6590   -0.1020    1.2510 ca        1 CK9     -0.086000
      5 C21         4.1680   -0.5990    0.0520 ca        1 CK9     -0.164000
      6 C20         3.3980   -0.5490   -1.1100 ca        1 CK9     -0.080000
      7 C19         2.1100   -0.0130   -1.0920 ca        1 CK9     -0.125300
      8 C18         1.2720   -0.0090   -2.3370 c3        1 CK9      0.265100
      9 N17         0.9120    1.3250   -2.7600 nh        1 CK9     -0.831900
     10 C4          0.1610    1.5300   -3.9060 ca        1 CK9      0.772200
     11 C5         -0.3740    2.8350   -4.1630 ca        1 CK9     -0.257200
     12 N9         -0.3770    4.0320   -3.4320 nc        1 CK9     -0.535100
     13 C8         -1.0390    4.9060   -4.2010 cd        1 CK9      0.389700
     14 C6         -1.0740    3.0170   -5.4280 ca        1 CK9      0.491800
     15 N7         -1.4950    4.3570   -5.4270 na        1 CK9     -0.269000
     16 C10        -2.2140    5.0470   -6.4720 c3        1 CK9      0.057000
     17 C12        -3.5660    5.5860   -5.9970 c3        1 CK9     -0.110600
     18 C11        -1.4090    6.1980   -7.0810 c3        1 CK9     -0.110600
     19 N3         -1.2580    2.0440   -6.3590 nb        1 CK9     -0.789000
     20 C2         -0.6860    0.8320   -6.0060 ca        1 CK9      0.910900
     21 N1         -0.0300    0.5320   -4.8160 nb        1 CK9     -0.836000
     22 N13        -0.7280   -0.1690   -7.0060 nh        1 CK9     -0.802900
     23 C14        -0.5910   -1.5680   -6.6480 c3        1 CK9      0.210500
     24 C25        -0.3930   -2.4420   -7.8990 c3        1 CK9     -0.079400
     25 C26         0.8740   -2.1130   -8.6410 c3        1 CK9     -0.091100
     26 C15        -1.7870   -2.1310   -5.8460 c3        1 CK9      0.093400
     27 O16        -2.9410   -2.0430   -6.6670 oh        1 CK9     -0.607800
     28 H27         0.1260    1.3260    1.0000 ho        1 CK9      0.425000
     29 H23         1.9740    0.8420    2.2380 ha        1 CK9      0.135000
     30 H22         4.2670   -0.1390    2.1670 ha        1 CK9      0.135000
     31 H21         5.1800   -1.0270    0.0200 ha        1 CK9      0.137000
     32 H20         3.8100   -0.9370   -2.0550 ha        1 CK9      0.141000
     33 H181        0.3440   -0.6240   -2.1350 h1        1 CK9      0.058700
     34 H182        1.8390   -0.5070   -3.1760 h1        1 CK9      0.058700
     35 H17         0.7710    1.9910   -2.0280 hn        1 CK9      0.451800
     36 H8         -1.2360    5.9540   -3.9490 h5        1 CK9      0.067800
     37 H10        -2.4100    4.2880   -7.2900 h1        1 CK9      0.091700
     38 H121       -4.2060    4.7640   -5.5960 hc        1 CK9      0.046200
     39 H122       -4.0890    6.0540   -6.8660 hc        1 CK9      0.046200
     40 H123       -3.4330    6.3580   -5.2020 hc        1 CK9      0.046200
     41 H111       -0.4360    5.8330   -7.4900 hc        1 CK9      0.046200
     42 H112       -2.0000    6.6460   -7.9150 hc        1 CK9      0.046200
     43 H113       -1.2040    6.9900   -6.3220 hc        1 CK9      0.046200
     44 H13        -1.4350   -0.0160   -7.7010 hn        1 CK9      0.426800
     45 H14         0.3250   -1.6820   -5.9950 h1        1 CK9      0.086700
     46 H251       -0.3620   -3.5100   -7.5540 hc        1 CK9      0.050200
     47 H252       -1.2810   -2.3390   -8.5760 hc        1 CK9      0.050200
     48 H261        1.7560   -2.1560   -7.9560 hc        1 CK9      0.037033
     49 H262        1.0330   -2.8460   -9.4690 hc        1 CK9      0.037033
     50 H263        0.8270   -1.0890   -9.0830 hc        1 CK9      0.037033
     51 H151       -1.5870   -3.2060   -5.5890 h1        1 CK9      0.034700
     52 H152       -1.9350   -1.5480   -4.8990 h1        1 CK9      0.034700
     53 H16        -3.6940   -2.2720   -6.1110 ho        1 CK9      0.402000
@<TRIPOS>BOND
     1    1    2 1   
     2    1   28 1   
     3    2    3 ar  
     4    2    7 ar  
     5    3    4 ar  
     6    3   29 1   
     7    4    5 ar  
     8    4   30 1   
     9    5    6 ar  
    10    5   31 1   
    11    6    7 ar  
    12    6   32 1   
    13    7    8 1   
    14    8    9 1   
    15    8   33 1   
    16    8   34 1   
    17    9   10 1   
    18    9   35 1   
    19   10   11 ar  
    20   10   21 ar  
    21   11   12 1   
    22   11   14 ar  
    23   12   13 2   
    24   13   15 1   
    25   13   36 1   
    26   14   15 1   
    27   14   19 ar  
    28   15   16 1   
    29   16   17 1   
    30   16   18 1   
    31   16   37 1   
    32   17   38 1   
    33   17   39 1   
    34   17   40 1   
    35   18   41 1   
    36   18   42 1   
    37   18   43 1   
    38   19   20 ar  
    39   20   21 ar  
    40   20   22 1   
    41   22   23 1   
    42   22   44 1   
    43   23   24 1   
    44   23   26 1   
    45   23   45 1   
    46   24   25 1   
    47   24   46 1   
    48   24   47 1   
    49   25   48 1   
    50   25   49 1   
    51   25   50 1   
    52   26   27 1   
    53   26   51 1   
    54   26   52 1   
    55   27   53 1   
@<TRIPOS>SUBSTRUCTURE
     1 CK9         1 TEMP              0 ****  ****    0 ROOT
