@<TRIPOS>MOLECULE
molecule
   20    21     1     0     0
SMALL
bcc


@<TRIPOS>ATOM
      1 C4           0.0000     0.0000     0.0000 ca         1 CKA      -0.031000
      2 C5           1.3650     0.0000     0.0000 ca         1 CKA      -0.202000
      3 C6           2.0720     0.0000     1.1970 ca         1 CKA       0.079400
      4 C7           1.4090    -0.0000     2.4060 ca         1 CKA      -0.204000
      5 C8           0.0170     0.0010     2.4290 ca         1 CKA       0.198600
      6 C9          -2.0380     0.0020     3.6560 cc         1 CKA       0.115800
      7 C10         -2.7170    -0.0040     4.9720 c          1 CKA       0.876800
      8 N1          -0.6730     0.0010     3.6190 na         1 CKA      -0.579400
      9 C3          -0.6920     0.0060     1.2120 ca         1 CKA      -0.218600
     10 C1          -2.7920     0.0010     2.5290 cd         1 CKA      -0.320200
     11 C2          -2.1640     0.0060     1.2540 c          1 CKA       0.580900
     12 O1          -2.8220     0.0110     0.2280 o          1 CKA      -0.612100
     13 Cl1          3.8080    -0.0010     1.1700 cl         1 CKA      -0.140400
     14 O2          -2.0610    -0.0040     5.9950 o          1 CKA      -0.812800
     15 O3          -4.0620    -0.0090     5.0360 o          1 CKA      -0.812800
     16 H1          -0.5440     0.0000    -0.9370 ha         1 CKA       0.152000
     17 H2           1.9020     0.0000    -0.9410 ha         1 CKA       0.130000
     18 H3           1.9690    -0.0000     3.3330 ha         1 CKA       0.141000
     19 H4          -3.8730     0.0350     2.6000 ha         1 CKA       0.191000
     20 H7          -0.1610     0.0000     4.4790 hn         1 CKA       0.467800
@<TRIPOS>BOND
     1    13     3 1
     2     4     3 ar
     3     4     5 ar
     4     3     2 ar
     5    14     7 1
     6     8     5 1
     7     8     6 1
     8     5     9 ar
     9     2     1 ar
    10     7     6 1
    11     7    15 1
    12     6    10 2
    13     9     1 ar
    14     9    11 1
    15    10    11 1
    16    11    12 2
    17     1    16 1
    18     2    17 1
    19     4    18 1
    20    10    19 1
    21     8    20 1
@<TRIPOS>SUBSTRUCTURE
     1 CKA         1 TEMP              0 ****  ****    0 ROOT
