@<TRIPOS>MOLECULE
molecule
   36    37     1     0     0
SMALL
bcc


@<TRIPOS>ATOM
      1 C2           0.0000     0.0000     0.0000 c          1 CKB       0.813500
      2 C4          -0.0430     0.0000     2.3350 c          1 CKB       0.708700
      3 C5           1.3730     0.0010     2.3510 cc         1 CKB      -0.274400
      4 C6           2.0420     0.0000     1.1780 cd         1 CKB       0.044600
      5 C7           2.1240     0.0020     3.6570 c3         1 CKB      -0.012900
      6 N1           1.3450     0.0000     0.0000 n          1 CKB      -0.350000
      7 N3          -0.6930     0.0000     1.1550 ns         1 CKB      -0.559500
      8 C1'          2.0710     0.0000    -1.2720 c3         1 CKB       0.340500
      9 C2'          1.7950    -1.3080    -2.0180 c3         1 CKB       0.085100
     10 C3'          2.5080    -1.2740    -3.3730 c3         1 CKB       0.107100
     11 C4'          2.0340    -0.0470    -4.1570 c3         1 CKB       0.101100
     12 C5'          2.3010     1.2130    -3.3290 c3         1 CKB       0.156100
     13 C6'          1.7770     2.4380    -4.0800 c3         1 CKB       0.152400
     14 O6'          2.1280     3.6230    -3.3630 oh         1 CKB      -0.601800
     15 O2'          2.2830    -2.4080    -1.2480 oh         1 CKB      -0.606800
     16 O3'          2.1960    -2.4600    -4.1060 oh         1 CKB      -0.602800
     17 O4'          2.7460     0.0340    -5.3940 oh         1 CKB      -0.603800
     18 O5'          1.6350     1.1030    -2.0700 os         1 CKB      -0.392600
     19 O2          -0.6000     0.0060    -1.0580 o          1 CKB      -0.648500
     20 O4          -0.6680     0.0000     3.3810 o          1 CKB      -0.620500
     21 H6           3.1260     0.0000     1.1700 h4         1 CKB       0.167000
     22 H7           1.8750    -0.8920     4.2170 hc         1 CKB       0.048367
     23 H7A          3.1890     0.0210     3.4620 hc         1 CKB       0.048367
     24 H7B          1.8460     0.8770     4.2320 hc         1 CKB       0.048367
     25 HN3         -1.6930    -0.0000     1.1360 hn         1 CKB       0.363500
     26 H1'          3.1350     0.0900    -1.0860 h2         1 CKB       0.067700
     27 H2'          0.7280    -1.4150    -2.1750 h1         1 CKB       0.093700
     28 H3'          3.5780    -1.2110    -3.2150 h1         1 CKB       0.056700
     29 H4'          0.9720    -0.1320    -4.3510 h1         1 CKB       0.068700
     30 H5'          3.3670     1.3140    -3.1640 h1         1 CKB       0.060700
     31 H6'          2.2170     2.4710    -5.0690 h1         1 CKB       0.041700
     32 H6'A         0.6990     2.3740    -4.1660 h1         1 CKB       0.041700
     33 HO6'         1.9240     4.3800    -3.8870 ho         1 CKB       0.406000
     34 HO2'         1.7430    -3.1660    -1.4050 ho         1 CKB       0.422000
     35 HO3'         2.9930    -2.9140    -4.3240 ho         1 CKB       0.415000
     36 HO4'         2.2030    -0.2920    -6.0920 ho         1 CKB       0.416000
@<TRIPOS>BOND
     1     1     6 1
     2     1     7 1
     3     1    19 2
     4     2     3 1
     5     2     7 1
     6     2    20 2
     7     3     4 2
     8     3     5 1
     9     4     6 1
    10     6     8 1
    11     8     9 1
    12     8    18 1
    13     9    10 1
    14     9    15 1
    15    10    11 1
    16    10    16 1
    17    11    12 1
    18    11    17 1
    19    12    13 1
    20    12    18 1
    21    13    14 1
    22     4    21 1
    23     5    22 1
    24     5    23 1
    25     5    24 1
    26     7    25 1
    27     8    26 1
    28     9    27 1
    29    10    28 1
    30    11    29 1
    31    12    30 1
    32    13    31 1
    33    13    32 1
    34    14    33 1
    35    15    34 1
    36    16    35 1
    37    17    36 1
@<TRIPOS>SUBSTRUCTURE
     1 CKB         1 TEMP              0 ****  ****    0 ROOT
