@<TRIPOS>MOLECULE
CKC
   28    27     1     0     0
SMALL
bcc


@<TRIPOS>ATOM
      1 CAK          0.0000     0.0000     0.0000 c3         1 CKC      -0.060100
      2 CAO          1.5080     0.0000     0.0000 c          1 CKC       0.595100
      3 OAF          2.1110     0.0020    -1.0450 o          1 CKC      -0.499100
      4 CAR          2.2610     0.0000     1.3060 c3         1 CKC      -0.185500
      5 NAC          3.6640    -0.3570     1.0600 nz         1 CKC       0.078400
      6 CAL          2.1920     1.3940     1.9350 c3         1 CKC      -0.026400
      7 CAH          2.8480     1.3620     3.3160 c3         1 CKC      -0.028400
      8 CAG          2.7790     2.7550     3.9450 c3         1 CKC      -0.028400
      9 CAI          3.4360     2.7240     5.3270 c3         1 CKC      -0.048200
     10 NAM          3.3700     4.0610     5.9310 nz         1 CKC       0.093400
     11 H1          -0.3610    -0.5640    -0.8520 hc         1 CKC       0.051367
     12 H2          -0.3610     1.0190    -0.0630 hc         1 CKC       0.051367
     13 H3           1.8160    -0.7230     1.9790 hx         1 CKC       0.110700
     14 H4           4.0830    -0.6680     1.9140 hn         1 CKC       0.235800
     15 H5           3.7080    -1.0910     0.3810 hn         1 CKC       0.235800
     16 H7           1.1560     1.6950     2.0340 hc         1 CKC       0.062200
     17 H8           2.7150     2.1010     1.3030 hc         1 CKC       0.062200
     18 H9           3.8840     1.0620     3.2170 hc         1 CKC       0.025700
     19 H10          2.3260     0.6540     3.9480 hc         1 CKC       0.025700
     20 H11          1.7430     3.0550     4.0450 hc         1 CKC       0.045700
     21 H12          3.3010     3.4640     3.3130 hc         1 CKC       0.045700
     22 H13          4.4720     2.4230     5.2280 hx         1 CKC       0.087700
     23 H14          2.9140     2.0160     5.9600 hx         1 CKC       0.087700
     24 H15          2.4120     4.3390     6.0230 hn         1 CKC       0.232133
     25 H16          3.7990     4.0420     6.8350 hn         1 CKC       0.232133
     26 H18         -0.3610    -0.4550     0.9140 hc         1 CKC       0.051367
     27 HAC3         4.1410     0.4240     0.6550 hn         1 CKC       0.235800
     28 HAM3         3.8560     4.7150     5.3490 hn         1 CKC       0.232133
@<TRIPOS>BOND
     1     1     2 1   
     2     1    11 1   
     3     1    12 1   
     4     1    26 1   
     5     2     3 2   
     6     2     4 1   
     7     4     5 1   
     8     4     6 1   
     9     4    13 1   
    10     5    14 1   
    11     5    15 1   
    12     5    27 1   
    13     6     7 1   
    14     6    16 1   
    15     6    17 1   
    16     7     8 1   
    17     7    18 1   
    18     7    19 1   
    19     8     9 1   
    20     8    20 1   
    21     8    21 1   
    22     9    10 1   
    23     9    22 1   
    24     9    23 1   
    25    10    24 1   
    26    10    25 1   
    27    10    28 1   
@<TRIPOS>SUBSTRUCTURE
     1 CKC         1 TEMP              0 ****  ****    0 ROOT
