@<TRIPOS>MOLECULE
molecule
   75    79     1     0     0
SMALL
bcc


@<TRIPOS>ATOM
      1 C2           0.0000     0.0000     0.0000 c3         1 CKD       0.249500
      2 C3          -3.1620     1.4290     0.3470 ca         1 CKD      -0.310500
      3 C5          -4.9520     0.2150    -0.6790 ca         1 CKD      -0.153500
      4 C7          -5.0930     0.8340     1.6290 ca         1 CKD      -0.153500
      5 C9           0.0810     1.2710     2.1790 c3         1 CKD       0.235800
      6 C10         -0.5130     0.1620    -1.4330 c3         1 CKD      -0.117400
      7 C11         -0.1680    -1.0890    -2.2430 c3         1 CKD      -0.030100
      8 C12         -0.6010    -0.8960    -3.6730 ca         1 CKD      -0.160300
      9 C13         -1.8410    -1.3580    -4.0910 ca         1 CKD       0.083600
     10 C15         -1.3970    -0.5420    -6.3030 ca         1 CKD      -0.086000
     11 C18         -3.6500    -2.8350    -3.6370 c          1 CKD       0.657100
     12 C20         -5.6240    -4.3230    -3.4390 c3         1 CKD       0.042900
     13 C21         -6.5500    -5.0020    -2.4640 ca         1 CKD      -0.090300
     14 C22         -6.5310    -6.3780    -2.3360 ca         1 CKD      -0.095750
     15 C30         -7.9100    -1.9750    -6.1800 ca         1 CKD       0.134900
     16 C29         -7.7170    -1.5330    -4.8810 ca         1 CKD      -0.163500
     17 C28         -6.9780    -2.2940    -3.9960 ca         1 CKD      -0.095750
     18 C31         -7.3650    -3.1810    -6.5870 ca         1 CKD      -0.163500
     19 C32         -6.6260    -3.9390    -5.7000 ca         1 CKD      -0.095750
     20 C27         -6.4300    -3.4950    -4.4060 ca         1 CKD      -0.090300
     21 C26         -7.4150    -4.2470    -1.6930 ca         1 CKD      -0.095750
     22 C25         -8.2660    -4.8680    -0.7990 ca         1 CKD      -0.163500
     23 C24         -8.2510    -6.2470    -0.6740 ca         1 CKD       0.134900
     24 F1          -9.0830    -6.8540     0.2000 f          1 CKD      -0.139900
     25 C23         -7.3820    -7.0020    -1.4430 ca         1 CKD      -0.163500
     26 C19         -4.6540    -3.4180    -2.6770 c3         1 CKD      -0.151400
     27 O2          -3.7030    -3.1160    -4.8150 o          1 CKD      -0.582100
     28 N2          -2.6920    -2.0010    -3.1860 ns         1 CKD      -0.474100
     29 C14         -2.2380    -1.1780    -5.4110 ca         1 CKD      -0.153000
     30 C16         -0.1640    -0.0780    -5.8840 ca         1 CKD      -0.182000
     31 C17          0.2350    -0.2540    -4.5710 ca         1 CKD       0.158900
     32 F            1.4400     0.2010    -4.1630 f          1 CKD      -0.140900
     33 C1           1.5330     0.0000     0.0000 c3         1 CKD       0.149800
     34 N            2.0180     0.0000     1.3860 n7         1 CKD      -0.820200
     35 N1          -0.4670     1.1260     0.8220 n3         1 CKD      -0.817500
     36 C            1.6100     1.2210     2.0940 c3         1 CKD       0.146800
     37 S           -1.5820     2.2020     0.2360 sy         1 CKD       1.425200
     38 O           -1.3040     2.3510    -1.1490 o          1 CKD      -0.636300
     39 O1          -1.6040     3.2920     1.1480 o          1 CKD      -0.636300
     40 C8          -3.8540     1.4400     1.5420 ca         1 CKD      -0.032000
     41 C6          -5.6440     0.2260     0.5170 ca         1 CKD      -0.076000
     42 C4          -3.7100     0.8170    -0.7640 ca         1 CKD      -0.032000
     43 H1          -0.3630    -0.9310     0.4190 h1         1 CKD       0.055700
     44 H2          -5.3830    -0.2640    -1.5500 ha         1 CKD       0.135000
     45 H3          -5.6360     0.8430     2.5670 ha         1 CKD       0.135000
     46 H4          -0.2750     0.4600     2.8030 h1         1 CKD       0.063700
     47 H5          -0.2290     2.2220     2.5960 h1         1 CKD       0.063700
     48 H6          -0.0470     1.0270    -1.8880 hc         1 CKD       0.078200
     49 H7          -1.5880     0.2970    -1.4180 hc         1 CKD       0.078200
     50 H8          -0.6810    -1.9450    -1.8230 hc         1 CKD       0.051200
     51 H9           0.9020    -1.2560    -2.2100 hc         1 CKD       0.051200
     52 H10         -1.7070    -0.4030    -7.3320 ha         1 CKD       0.141000
     53 H11         -5.0640    -5.0730    -3.9860 hc         1 CKD       0.081700
     54 H12         -5.8510    -6.9690    -2.9380 ha         1 CKD       0.136250
     55 H14         -6.8270    -1.9490    -2.9800 ha         1 CKD       0.136250
     56 H15         -7.5180    -3.5300    -7.6010 ha         1 CKD       0.146250
     57 H16         -6.2000    -4.8830    -6.0190 ha         1 CKD       0.136250
     58 H17         -7.4270    -3.1680    -1.7910 ha         1 CKD       0.136250
     59 H18         -8.9440    -4.2760    -0.1950 ha         1 CKD       0.146250
     60 H19         -7.3680    -8.0810    -1.3440 ha         1 CKD       0.146250
     61 H20         -4.1370    -3.9980    -1.9220 hc         1 CKD       0.068200
     62 H21         -5.2070    -2.6170    -2.2010 hc         1 CKD       0.068200
     63 H22         -2.5730    -1.8620    -2.2020 hn         1 CKD       0.328500
     64 H23         -3.2050    -1.5390    -5.7410 ha         1 CKD       0.178000
     65 H24          0.4920     0.4220    -6.5860 ha         1 CKD       0.145000
     66 H25          1.8930    -0.8860    -0.5080 h1         1 CKD       0.046200
     67 H26          1.8930     0.8860    -0.5080 h1         1 CKD       0.046200
     68 H27          3.0170    -0.0700     1.3900 hn         1 CKD       0.358800
     69 H29          1.9690     2.0880     1.5540 h1         1 CKD       0.041700
     70 H30          2.0260     1.2140     3.0940 h1         1 CKD       0.041700
     71 H31         -3.4230     1.9170     2.4140 ha         1 CKD       0.153000
     72 H32         -6.6160    -0.2480     0.5850 ha         1 CKD       0.133000
     73 H33         -3.1670     0.8090    -1.7020 ha         1 CKD       0.153000
     74 H13         -8.1470    -0.5920    -4.5590 ha         1 CKD       0.146250
     75 F2          -8.6330    -1.2320    -7.0460 f          1 CKD      -0.139900
@<TRIPOS>BOND
     1    24    23 1
     2    23    25 ar
     3    23    22 ar
     4    25    14 ar
     5    22    21 ar
     6    14    13 ar
     7    21    13 ar
     8    75    15 1
     9    18    15 ar
    10    18    19 ar
    11    13    12 1
    12    15    16 ar
    13    19    20 ar
    14    16    17 ar
    15    20    17 ar
    16    20    12 1
    17     3    41 ar
    18     3    42 ar
    19    12    26 1
    20    41     4 ar
    21    42     2 ar
    22    26    11 1
    23     4    40 ar
    24    39    37 2
    25     2    40 ar
    26     2    37 1
    27    37    35 1
    28    37    38 2
    29    11    28 1
    30    11    27 2
    31    33     1 1
    32    33    34 1
    33     1    35 1
    34     1     6 1
    35    28     9 1
    36    35     5 1
    37    34    36 1
    38     7     6 1
    39     7     8 1
    40    36     5 1
    41     9     8 ar
    42     9    29 ar
    43     8    31 ar
    44    29    10 ar
    45    31    32 1
    46    31    30 ar
    47    10    30 ar
    48     1    43 1
    49     3    44 1
    50     4    45 1
    51     5    46 1
    52     5    47 1
    53     6    48 1
    54     6    49 1
    55     7    50 1
    56     7    51 1
    57    10    52 1
    58    12    53 1
    59    14    54 1
    60    16    74 1
    61    17    55 1
    62    18    56 1
    63    19    57 1
    64    21    58 1
    65    22    59 1
    66    25    60 1
    67    26    61 1
    68    26    62 1
    69    28    63 1
    70    29    64 1
    71    30    65 1
    72    33    66 1
    73    33    67 1
    74    34    68 1
    75    36    69 1
    76    36    70 1
    77    40    71 1
    78    41    72 1
    79    42    73 1
@<TRIPOS>SUBSTRUCTURE
     1 CKD         1 TEMP              0 ****  ****    0 ROOT
