@<TRIPOS>MOLECULE
molecule
   66    70     1     0     0
SMALL
bcc


@<TRIPOS>ATOM
      1 C11          0.0000     0.0000     0.0000 cc         1 CKE       0.004700
      2 C12         -0.8650    -0.0000    -1.2330 c3         1 CKE       0.028100
      3 C13         -1.0520    -1.4160    -1.7160 ca         1 CKE      -0.134300
      4 C14         -0.1580    -1.9610    -2.6170 ca         1 CKE      -0.094500
      5 C15         -0.3260    -3.2580    -3.0610 ca         1 CKE      -0.164000
      6 C16         -1.3970    -4.0150    -2.6010 ca         1 CKE       0.121600
      7 C20         -1.6510    -5.3770    -4.5140 c3         1 CKE       0.118800
      8 C21         -1.7620    -6.8350    -4.9670 c3         1 CKE       0.161800
      9 C24         -2.7580    -5.9380    -2.4360 c3         1 CKE       0.118800
     10 C27         -2.1860    -1.2380     2.5040 c3         1 CKE      -0.095900
     11 C30         -3.9690     0.0180     3.7240 c3         1 CKE      -0.083400
     12 C31         -4.1800    -6.8030    -4.8360 c3         1 CKE       0.141100
     13 N01          2.9960     0.0140     3.3850 nb         1 CKE      -0.755000
     14 C02          2.9940     0.0030     2.0610 ca         1 CKE       0.513200
     15 C03          1.7670     0.0000     1.4000 ca         1 CKE      -0.303400
     16 C04          0.5820     0.0100     2.1680 ca         1 CKE       0.487800
     17 N05          0.6850     0.0210     3.4920 nb         1 CKE      -0.735000
     18 C06          1.8670     0.0230     4.0700 ca         1 CKE       0.583300
     19 C07          1.3430     0.0000     0.0000 cd         1 CKE      -0.179200
     20 N08         -0.4670     0.0060     1.2890 na         1 CKE      -0.141100
     21 N10          1.9550    -1.3450     6.0760 nz         1 CKE      -0.808600
     22 C17         -2.2930    -3.4630    -1.6940 ca         1 CKE      -0.164000
     23 C18         -2.1150    -2.1670    -1.2500 ca         1 CKE      -0.094500
     24 N19         -1.5700    -5.3270    -3.0480 nh         1 CKE      -0.590000
     25 N22         -2.9500    -7.4460    -4.3550 n3         1 CKE      -0.717600
     26 C23         -2.8680    -7.3970    -2.8890 c3         1 CKE       0.161800
     27 C25         -1.8810     0.0080     1.6690 c3         1 CKE       0.048000
     28 C26         -2.1860     1.2610     2.4930 c3         1 CKE      -0.095900
     29 C28         -3.6640     1.2630     2.8900 c3         1 CKE      -0.077900
     30 C29         -3.6640    -1.2360     2.9010 c3         1 CKE      -0.077900
     31 C09          1.9360     0.0350     5.5760 c3         1 CKE       0.094500
     32 H121        -1.8300     0.4310    -0.9980 hc         1 CKE       0.072700
     33 H122        -0.3880     0.5860    -2.0100 hc         1 CKE       0.072700
     34 H14          0.6770    -1.3710    -2.9760 ha         1 CKE       0.127500
     35 H15          0.3750    -3.6850    -3.7680 ha         1 CKE       0.145000
     36 H201        -0.7590    -4.9340    -4.9390 h1         1 CKE       0.047950
     37 H202        -2.5260    -4.8290    -4.8450 h1         1 CKE       0.047950
     38 H211        -0.8770    -7.3770    -4.6550 h1         1 CKE       0.067700
     39 H212        -1.8530    -6.8710    -6.0460 h1         1 CKE       0.067700
     40 H241        -3.6430    -5.3970    -2.7470 h1         1 CKE       0.047950
     41 H242        -2.6670    -5.9020    -1.3570 h1         1 CKE       0.047950
     42 H271        -1.5730    -1.2320     3.3970 hc         1 CKE       0.054950
     43 H272        -1.9720    -2.1240     1.9190 hc         1 CKE       0.054950
     44 H301        -5.0160     0.0190     4.0030 hc         1 CKE       0.047700
     45 H302        -3.3530     0.0210     4.6160 hc         1 CKE       0.047700
     46 H311        -4.2580    -6.9300    -5.9090 h1         1 CKE       0.036033
     47 H312        -4.1510    -5.7460    -4.5990 h1         1 CKE       0.036033
     48 H313        -5.0370    -7.2580    -4.3550 h1         1 CKE       0.036033
     49 H02          3.9230    -0.0040     1.5050 h4         1 CKE       0.055100
     50 H07          1.9800     0.1790    -0.8580 ha         1 CKE       0.177000
     51 H101         1.9870    -1.3370     7.0760 hn         1 CKE       0.458133
     52 H102         2.7620    -1.8180     5.7200 hn         1 CKE       0.458133
     53 H17         -3.1280    -4.0510    -1.3310 ha         1 CKE       0.145000
     54 H18         -2.8140    -1.7370    -0.5430 ha         1 CKE       0.127500
     55 H231        -1.9940    -7.9440    -2.5580 h1         1 CKE       0.067700
     56 H232        -3.7610    -7.8400    -2.4640 h1         1 CKE       0.067700
     57 H25         -2.4990     0.0050     0.7800 h1         1 CKE       0.085700
     58 H261        -1.9710     2.1420     1.9000 hc         1 CKE       0.054950
     59 H262        -1.5730     1.2620     3.3860 hc         1 CKE       0.054950
     60 H281        -3.8780     2.1490     3.4750 hc         1 CKE       0.052950
     61 H282        -4.2760     1.2570     1.9970 hc         1 CKE       0.052950
     62 H291        -4.2770    -1.2380     2.0080 hc         1 CKE       0.052950
     63 H292        -3.8780    -2.1170     3.4940 hc         1 CKE       0.052950
     64 H091         2.8370     0.5460     5.8920 hx         1 CKE       0.124200
     65 H092         1.0700     0.5510     5.9730 hx         1 CKE       0.124200
     66 H103         1.1290    -1.8220     5.7730 hn         1 CKE       0.458133
@<TRIPOS>BOND
     1    29    11 1
     2    29    28 1
     3    11    30 1
     4    30    10 1
     5    28    27 1
     6    26     9 1
     7    26    25 1
     8    12    25 1
     9    27    10 1
    10    27    20 1
    11     4     5 ar
    12     4     3 ar
    13     9    24 1
    14     5     6 ar
    15    25     8 1
    16     2     3 1
    17     2     1 1
    18     3    23 ar
    19    20     1 1
    20    20    16 1
    21     6    24 1
    22     6    22 ar
    23    24     7 1
    24     8     7 1
    25     1    19 2
    26    23    22 ar
    27    16    17 ar
    28    16    15 ar
    29    17    18 ar
    30    19    15 1
    31    15    14 ar
    32    18    31 1
    33    18    13 ar
    34    31    21 1
    35    14    13 ar
    36     2    32 1
    37     2    33 1
    38     4    34 1
    39     5    35 1
    40     7    36 1
    41     7    37 1
    42     8    38 1
    43     8    39 1
    44     9    40 1
    45     9    41 1
    46    10    42 1
    47    10    43 1
    48    11    44 1
    49    11    45 1
    50    12    46 1
    51    12    47 1
    52    12    48 1
    53    14    49 1
    54    19    50 1
    55    21    51 1
    56    21    52 1
    57    22    53 1
    58    23    54 1
    59    26    55 1
    60    26    56 1
    61    27    57 1
    62    28    58 1
    63    28    59 1
    64    29    60 1
    65    29    61 1
    66    30    62 1
    67    30    63 1
    68    31    64 1
    69    31    65 1
    70    66    21 1
@<TRIPOS>SUBSTRUCTURE
     1 CKE         1 TEMP              0 ****  ****    0 ROOT
