@<TRIPOS>MOLECULE
molecule
   56    60     1     0     0
SMALL
bcc


@<TRIPOS>ATOM
      1 O9           0.0000     0.0000     0.0000 o          1 CKG      -0.422100
      2 C8           1.2150     0.0000     0.0000 c          1 CKG       0.451600
      3 N24          1.8890     0.0000     1.1670 nz         1 CKG      -0.675400
      4 C5           1.9540    -0.0050    -1.2800 cc         1 CKG       0.184800
      5 C4           1.3950    -0.0100    -2.5590 cc         1 CKG      -0.160600
      6 C2          -0.0300    -0.0330    -3.0290 c3         1 CKG      -0.011100
      7 N6           3.2690     0.0000    -1.4290 nd         1 CKG      -0.532800
      8 N7           3.5840    -0.0060    -2.6820 na         1 CKG       0.245400
      9 C17          4.9510    -0.0100    -3.2100 c3         1 CKG       0.049300
     10 C25          5.4240    -1.4550    -3.3860 c3         1 CKG      -0.088700
     11 C30          6.8030    -1.4630    -4.0520 c3         1 CKG      -0.074900
     12 C29          7.2970    -2.9070    -4.1720 c3         1 CKG       0.160800
     13 N28          7.3750    -3.5110    -2.8350 n7         1 CKG      -0.818200
     14 C27          6.0550    -3.5550    -2.1940 c3         1 CKG       0.160800
     15 C26          5.5230    -2.1320    -2.0160 c3         1 CKG      -0.074900
     16 C3           2.4630    -0.0030    -3.4300 cd         1 CKG      -0.170800
     17 C11          2.2350     0.0230    -4.8850 ca         1 CKG       0.534800
     18 N18          3.1940    -0.2090    -5.7670 nb         1 CKG      -0.761000
     19 C12          2.9200    -0.1970    -7.0700 ca         1 CKG       0.916000
     20 N13          1.6920     0.0520    -7.5190 nb         1 CKG      -0.724000
     21 C14          0.6970     0.3170    -6.6900 ca         1 CKG       0.492200
     22 C10          0.9380     0.3300    -5.3270 ca         1 CKG      -0.343900
     23 C1          -0.1460     0.7100    -4.3600 c3         1 CKG      -0.025100
     24 N15          3.9160    -0.4440    -7.9620 ne         1 CKG      -0.660700
     25 C16          4.2220    -1.6880    -8.2820 cf         1 CKG       0.601900
     26 C23          5.3730    -1.9890    -9.1550 cf         1 CKG      -0.267600
     27 C22          5.4620    -3.1840    -9.7240 c2         1 CKG      -0.104200
     28 C21          4.4360    -4.2550    -9.5350 c3         1 CKG      -0.039000
     29 C20          3.5380    -4.0070    -8.3650 c2         1 CKG      -0.104200
     30 C19          3.4280    -2.8230    -7.7750 cf         1 CKG      -0.267600
     31 H241         2.3240    -0.8920     1.3010 hn         1 CKG       0.480133
     32 H242         2.5910     0.7130     1.1470 hn         1 CKG       0.480133
     33 H21C        -0.3130    -1.0660    -3.1940 hc         1 CKG       0.075200
     34 H22C        -0.6330     0.4900    -2.2970 hc         1 CKG       0.075200
     35 H11C        -0.0660     1.7720    -4.1630 hc         1 CKG       0.068700
     36 H12C        -1.1000     0.4570    -4.8060 hc         1 CKG       0.068700
     37 H171         5.6070     0.5030    -2.5170 h1         1 CKG       0.099200
     38 H172         4.9690     0.4950    -4.1670 h1         1 CKG       0.099200
     39 H25          4.7210    -1.9980    -4.0060 hc         1 CKG       0.073700
     40 H301         7.4980    -0.8930    -3.4480 hc         1 CKG       0.051950
     41 H302         6.7280    -1.0240    -5.0400 hc         1 CKG       0.051950
     42 H261         6.2010    -1.5710    -1.3840 hc         1 CKG       0.051950
     43 H262         4.5420    -2.1680    -1.5590 hc         1 CKG       0.051950
     44 H291         6.6050    -3.4740    -4.7830 h1         1 CKG       0.038200
     45 H292         8.2790    -2.9140    -4.6280 h1         1 CKG       0.038200
     46 H28          7.7420    -4.4390    -2.9100 hn         1 CKG       0.365800
     47 H271         6.1420    -4.0310    -1.2250 h1         1 CKG       0.038200
     48 H272         5.3710    -4.1190    -2.8180 h1         1 CKG       0.038200
     49 H14         -0.2970     0.5170    -7.0720 h4         1 CKG       0.045100
     50 H23          6.0560    -1.2000    -9.4430 ha         1 CKG       0.152500
     51 H19          2.6500    -2.6540    -7.0390 ha         1 CKG       0.152500
     52 H22          6.3180    -3.3930   -10.3540 ha         1 CKG       0.140500
     53 H211         3.8300    -4.3170   -10.4310 hc         1 CKG       0.084200
     54 H212         4.9450    -5.2000    -9.3870 hc         1 CKG       0.084200
     55 H20          2.9490    -4.8310    -7.9820 ha         1 CKG       0.140500
     56 H243         1.2570     0.1970     1.9170 hn         1 CKG       0.480133
@<TRIPOS>BOND
     1     1     2 2
     2     2     3 1
     3     2     4 1
     4     4     5 1
     5     4     7 2
     6     5     6 1
     7     5    16 2
     8     6    23 1
     9     7     8 1
    10     8     9 1
    11     8    16 1
    12     9    10 1
    13    10    11 1
    14    10    15 1
    15    11    12 1
    16    12    13 1
    17    13    14 1
    18    14    15 1
    19    16    17 1
    20    17    18 ar
    21    17    22 ar
    22    18    19 ar
    23    19    20 ar
    24    19    24 1
    25    20    21 ar
    26    21    22 ar
    27    22    23 1
    28    24    25 2
    29    25    26 1
    30    25    30 1
    31    26    27 2
    32    27    28 1
    33    28    29 1
    34    29    30 2
    35     3    31 1
    36     3    32 1
    37     6    33 1
    38     6    34 1
    39    23    35 1
    40    23    36 1
    41     9    37 1
    42     9    38 1
    43    10    39 1
    44    11    40 1
    45    11    41 1
    46    15    42 1
    47    15    43 1
    48    12    44 1
    49    12    45 1
    50    13    46 1
    51    14    47 1
    52    14    48 1
    53    21    49 1
    54    26    50 1
    55    30    51 1
    56    27    52 1
    57    28    53 1
    58    28    54 1
    59    29    55 1
    60    56     3 1
@<TRIPOS>SUBSTRUCTURE
     1 CKG         1 TEMP              0 ****  ****    0 ROOT
