@<TRIPOS>MOLECULE
CKH
   39    41     1     0     0
SMALL
bcc


@<TRIPOS>ATOM
      1 CAQ          0.0000     0.0000     0.0000 c3         1 CKH       0.095100
      2 CAP          1.5070     0.0000     0.0000 cc         1 CKH      -0.245300
      3 NAO          2.2930     0.0000     1.1210 na         1 CKH       0.364600
      4 CAN          3.6210    -0.0000     0.7610 ca         1 CKH      -0.226200
      5 CAM          4.8100     0.0040     1.4850 ca         1 CKH      -0.101000
      6 CAL          6.0160     0.0080     0.8190 ca         1 CKH      -0.085000
      7 CAA          6.0590     0.0070    -0.5680 ca         1 CKH      -0.129000
      8 CAB          4.9040     0.0030    -1.2980 ca         1 CKH      -0.047000
      9 CAC          3.6710    -0.0020    -0.6450 ca         1 CKH      -0.088800
     10 CAD          2.2790    -0.0060    -1.0980 cd         1 CKH      -0.156400
     11 CAE          1.8020    -0.0080    -2.5280 c3         1 CKH       0.059800
     12 CAF          1.6450    -1.4510    -3.0110 c3         1 CKH       0.047000
     13 NAG          1.1810    -1.4540    -4.4010 ns         1 CKH      -0.205900
     14 CAH          0.9720    -2.6230    -5.0400 c          1 CKH       0.593700
     15 OAR          1.1680    -3.6750    -4.4630 o          1 CKH      -0.630100
     16 CAI          0.5050    -2.6250    -6.4400 ca         1 CKH      -0.187600
     17 CAJ          0.2830    -1.4190    -7.1080 ca         1 CKH      -0.061000
     18 CAK         -0.1530    -1.4270    -8.4160 ca         1 CKH      -0.125000
     19 CAU         -0.3730    -2.6290    -9.0690 ca         1 CKH      -0.052000
     20 CAT         -0.1580    -3.8280    -8.4160 ca         1 CKH      -0.149000
     21 CAS          0.2860    -3.8350    -7.1060 ca         1 CKH       0.182900
     22 FAV          0.5020    -5.0070    -6.4700 f          1 CKH      -0.107900
     23 H1          -0.3610    -0.9320    -0.4180 hc         1 CKH       0.009367
     24 H2          -0.3610     0.8280    -0.5980 hc         1 CKH       0.009367
     25 H3          -0.3610     0.1040     1.0160 hc         1 CKH       0.009367
     26 H4           1.9520     0.0000     2.0620 hn         1 CKH       0.114700
     27 H5           4.7870     0.0040     2.5680 ha         1 CKH       0.099000
     28 H6           6.9400     0.0110     1.3840 ha         1 CKH       0.100000
     29 H7           7.0160     0.0100    -1.0760 ha         1 CKH       0.102000
     30 H8           4.9450     0.0020    -2.3810 ha         1 CKH       0.100000
     31 H9           0.8470     0.4990    -2.5910 hc         1 CKH       0.014200
     32 H10          2.5250     0.5040    -3.1510 hc         1 CKH       0.014200
     33 H11          2.5990    -1.9590    -2.9480 h1         1 CKH       0.031700
     34 H12          0.9210    -1.9640    -2.3880 h1         1 CKH       0.031700
     35 H13          1.0330    -0.5890    -4.8810 hn         1 CKH       0.176500
     36 H14          0.4540    -0.4770    -6.6000 ha         1 CKH       0.105000
     37 H15         -0.3240    -0.4920    -8.9350 ha         1 CKH       0.108000
     38 H16         -0.7180    -2.6290   -10.0960 ha         1 CKH       0.106000
     39 H17         -0.3300    -4.7640    -8.9330 ha         1 CKH       0.123000
@<TRIPOS>BOND
     1     1     2 1   
     2     1    23 1   
     3     1    24 1   
     4     1    25 1   
     5     2     3 1   
     6     2    10 2   
     7     3     4 1   
     8     3    26 1   
     9     4     5 ar  
    10     4     9 ar  
    11     5     6 ar  
    12     5    27 1   
    13     6     7 ar  
    14     6    28 1   
    15     7     8 ar  
    16     7    29 1   
    17     8     9 ar  
    18     8    30 1   
    19     9    10 1   
    20    10    11 1   
    21    11    12 1   
    22    11    31 1   
    23    11    32 1   
    24    12    13 1   
    25    12    33 1   
    26    12    34 1   
    27    13    14 1   
    28    13    35 1   
    29    14    15 2   
    30    14    16 1   
    31    16    17 ar  
    32    16    21 ar  
    33    17    18 ar  
    34    17    36 1   
    35    18    19 ar  
    36    18    37 1   
    37    19    20 ar  
    38    19    38 1   
    39    20    21 ar  
    40    20    39 1   
    41    21    22 1   
@<TRIPOS>SUBSTRUCTURE
     1 CKH         1 TEMP              0 ****  ****    0 ROOT
