@<TRIPOS>MOLECULE
molecule
   39    41     1     0     0
SMALL
bcc


@<TRIPOS>ATOM
      1 CAQ          0.0000     0.0000     0.0000 c3         1 CKH      -0.031900
      2 CAP          1.5070     0.0000     0.0000 cc         1 CKH      -0.044300
      3 NAO          2.2930     0.0000     1.1210 na         1 CKH      -0.178400
      4 CAN          3.6210    -0.0000     0.7610 ca         1 CKH      -0.036200
      5 CAM          4.8100     0.0040     1.4850 ca         1 CKH      -0.143000
      6 CAL          6.0160     0.0080     0.8190 ca         1 CKH      -0.108000
      7 CAA          6.0590     0.0070    -0.5680 ca         1 CKH      -0.155000
      8 CAB          4.9040     0.0030    -1.2980 ca         1 CKH      -0.080000
      9 CAC          3.6710    -0.0020    -0.6450 ca         1 CKH      -0.093800
     10 CAD          2.2790    -0.0060    -1.0980 cd         1 CKH      -0.159400
     11 CAE          1.8020    -0.0080    -2.5280 c3         1 CKH      -0.017200
     12 CAF          1.6450    -1.4510    -3.0110 c3         1 CKH       0.115000
     13 NAG          1.1810    -1.4540    -4.4010 ns         1 CKH      -0.588900
     14 CAH          0.9720    -2.6230    -5.0400 c          1 CKH       0.670700
     15 OAR          1.1680    -3.6750    -4.4630 o          1 CKH      -0.589100
     16 CAI          0.5050    -2.6250    -6.4400 ca         1 CKH      -0.188600
     17 CAJ          0.2830    -1.4190    -7.1080 ca         1 CKH      -0.082000
     18 CAK         -0.1530    -1.4270    -8.4160 ca         1 CKH      -0.156000
     19 CAU         -0.3730    -2.6290    -9.0690 ca         1 CKH      -0.081000
     20 CAT         -0.1580    -3.8280    -8.4160 ca         1 CKH      -0.182000
     21 CAS          0.2860    -3.8350    -7.1060 ca         1 CKH       0.196900
     22 FAV          0.5020    -5.0070    -6.4700 f          1 CKH      -0.107900
     23 H1          -0.3610    -0.9320    -0.4180 hc         1 CKH       0.050367
     24 H2          -0.3610     0.8280    -0.5980 hc         1 CKH       0.050367
     25 H3          -0.3610     0.1040     1.0160 hc         1 CKH       0.050367
     26 H4           1.9520     0.0000     2.0620 hn         1 CKH       0.296700
     27 H5           4.7870     0.0040     2.5680 ha         1 CKH       0.125000
     28 H6           6.9400     0.0110     1.3840 ha         1 CKH       0.130000
     29 H7           7.0160     0.0100    -1.0760 ha         1 CKH       0.129000
     30 H8           4.9450     0.0020    -2.3810 ha         1 CKH       0.129000
     31 H9           0.8470     0.4990    -2.5910 hc         1 CKH       0.046700
     32 H10          2.5250     0.5040    -3.1510 hc         1 CKH       0.046700
     33 H11          2.5990    -1.9590    -2.9480 h1         1 CKH       0.059700
     34 H12          0.9210    -1.9640    -2.3880 h1         1 CKH       0.059700
     35 H13          1.0330    -0.5890    -4.8810 hn         1 CKH       0.309500
     36 H14          0.4540    -0.4770    -6.6000 ha         1 CKH       0.131000
     37 H15         -0.3240    -0.4920    -8.9350 ha         1 CKH       0.137000
     38 H16         -0.7180    -2.6290   -10.0960 ha         1 CKH       0.138000
     39 H17         -0.3300    -4.7640    -8.9330 ha         1 CKH       0.151000
@<TRIPOS>BOND
     1     6     7 ar
     2     6     5 ar
     3     7     8 ar
     4     5     4 ar
     5     8     9 ar
     6     4     9 ar
     7     4     3 1
     8     9    10 1
     9     3     2 1
    10    10     2 2
    11    10    11 1
    12     2     1 1
    13    11    12 1
    14    12    13 1
    15    13    14 1
    16    15    14 2
    17    14    16 1
    18    22    21 1
    19    16    21 ar
    20    16    17 ar
    21    21    20 ar
    22    17    18 ar
    23    20    19 ar
    24    18    19 ar
    25     1    23 1
    26     1    24 1
    27     1    25 1
    28     3    26 1
    29     5    27 1
    30     6    28 1
    31     7    29 1
    32     8    30 1
    33    11    31 1
    34    11    32 1
    35    12    33 1
    36    12    34 1
    37    13    35 1
    38    17    36 1
    39    18    37 1
    40    19    38 1
    41    20    39 1
@<TRIPOS>SUBSTRUCTURE
     1 CKH         1 TEMP              0 ****  ****    0 ROOT
