@<TRIPOS>MOLECULE
molecule
   31    32     1     0     0
SMALL
bcc


@<TRIPOS>ATOM
      1 C1           0.0000     0.0000     0.0000 ca         1 CKI       0.410200
      2 N2           1.3120     0.0000     0.0000 nb         1 CKI      -0.656000
      3 C3           2.0300     0.0000     1.1150 ca         1 CKI       0.415200
      4 C4           1.4470    -0.0020     2.3460 ca         1 CKI      -0.212300
      5 C5          -0.6350    -0.0070     3.6550 ca         1 CKI       0.097400
      6 Cl5          0.2540    -0.0090     5.1450 cl         1 CKI      -0.057400
      7 C6          -1.9990    -0.0080     3.6680 ca         1 CKI      -0.146000
      8 C7          -2.7270    -0.0080     2.4810 ca         1 CKI       0.006000
      9 C8          -2.1020    -0.0040     1.2720 ca         1 CKI      -0.319500
     10 C9          -0.7000    -0.0090     1.2180 ca         1 CKI      -0.091300
     11 C10          0.0420    -0.0040     2.4270 ca         1 CKI      -0.036000
     12 S           -3.0460    -0.0040    -0.2160 sy         1 CKI       1.421200
     13 O1S         -2.4930     1.0260    -1.0230 o          1 CKI      -0.602800
     14 O2S         -4.4050    -0.0890     0.1910 o          1 CKI      -0.602800
     15 N1'         -2.7240    -1.4210    -1.0080 n7         1 CKI      -0.914100
     16 C1'         -3.1160    -2.6980    -0.4110 c3         1 CKI       0.223800
     17 C2'         -2.8190    -3.8340    -1.3940 c3         1 CKI       0.079800
     18 N2'         -3.2120    -5.1160    -0.7960 nz         1 CKI      -0.808600
     19 H1          -0.5430     0.0000    -0.9380 h4         1 CKI       0.031100
     20 H3           3.1110     0.0000     1.0440 h4         1 CKI       0.040100
     21 H4           2.0520    -0.0020     3.2440 ha         1 CKI       0.165000
     22 H6          -2.5230    -0.0110     4.6160 ha         1 CKI       0.163000
     23 H7          -3.8100    -0.0090     2.5210 ha         1 CKI       0.165000
     24 HN1         -2.2970    -1.4020    -1.9130 hn         1 CKI       0.465800
     25 H1'1        -2.5580    -2.8570     0.5030 h1         1 CKI       0.066700
     26 H1'2        -4.1760    -2.6820    -0.1890 h1         1 CKI       0.066700
     27 H2'1        -3.3770    -3.6750    -2.3090 hx         1 CKI       0.120700
     28 H2'2        -1.7580    -3.8500    -1.6170 hx         1 CKI       0.120700
     29 HN21        -3.0170    -5.8580    -1.4390 hn         1 CKI       0.462133
     30 HN22        -4.1910    -5.1010    -0.5900 hn         1 CKI       0.462133
     31 H2'3        -2.6960    -5.2620     0.0490 hn         1 CKI       0.462133
@<TRIPOS>BOND
     1     1     2 ar
     2     1    10 ar
     3     1    19 1
     4     2     3 ar
     5     3     4 ar
     6     3    20 1
     7     4    11 ar
     8     4    21 1
     9     5     6 1
    10     5     7 ar
    11     5    11 ar
    12     7     8 ar
    13     7    22 1
    14     8     9 ar
    15     8    23 1
    16     9    10 ar
    17     9    12 1
    18    10    11 ar
    19    12    13 2
    20    12    14 2
    21    12    15 1
    22    15    16 1
    23    15    24 1
    24    16    17 1
    25    16    25 1
    26    16    26 1
    27    17    18 1
    28    17    27 1
    29    17    28 1
    30    18    29 1
    31    18    30 1
    32    31    18 1
@<TRIPOS>SUBSTRUCTURE
     1 CKI         1 TEMP              0 ****  ****    0 ROOT
