@<TRIPOS>MOLECULE
CKJ
   59    62     1     0     0
SMALL
bcc


@<TRIPOS>ATOM
      1 C            0.0000     0.0000     0.0000 ca         1 CKJ      -0.051500
      2 F           -0.6730    -0.0030     3.5640 f          1 CKJ      -0.120900
      3 N            1.7800    -0.6060    -2.3880 nc         1 CKJ      -0.648100
      4 C01          1.9240     0.0960    -5.6460 c3         1 CKJ      -0.083700
      5 C02          7.7080     2.9890    -2.3960 c3         1 CKJ       0.151800
      6 N02          2.7320    -0.3800    -3.3880 na         1 CKJ       0.348200
      7 C03          8.9070     3.4180    -3.2440 c3         1 CKJ      -0.032400
      8 C04          9.8450     4.2860    -2.4010 c3         1 CKJ      -0.024400
      9 C05         11.0440     4.7140    -3.2500 c3         1 CKJ       0.007900
     10 C06          1.3940     0.0000     0.0000 ca         1 CKJ      -0.133900
     11 C07          2.0870     0.0000     1.2100 ca         1 CKJ      -0.051500
     12 C08          1.3910    -0.0010     2.4000 ca         1 CKJ      -0.132500
     13 C09          0.0050    -0.0020     2.3950 ca         1 CKJ       0.128900
     14 C10         -0.6870     0.0040     1.1960 ca         1 CKJ      -0.132500
     15 C23          4.2800     1.4700    -0.7980 ca         1 CKJ       0.567200
     16 N24          5.3740     1.9300    -1.3770 nb         1 CKJ      -0.703000
     17 C25          5.6500     1.6500    -2.6460 ca         1 CKJ       0.735900
     18 N26          4.8570     0.9050    -3.3960 nb         1 CKJ      -0.685000
     19 C27          3.4090     0.6780    -1.5470 ca         1 CKJ      -0.540500
     20 C28          3.7330     0.4010    -2.8920 ca         1 CKJ       0.346800
     21 C31          2.1390     0.0000    -1.2830 cd         1 CKJ       0.518500
     22 C32          2.6630    -0.9030    -4.7540 c3         1 CKJ       0.011300
     23 C33          1.9610    -0.3900    -7.0970 c3         1 CKJ       0.008600
     24 C35          0.4710     0.2130    -5.1850 c3         1 CKJ       0.008600
     25 C36         -0.2690     1.2130    -6.0770 c3         1 CKJ      -0.100900
     26 C37         -0.2330     0.7270    -7.5270 c3         1 CKJ      -0.004500
     27 C38          1.2220     0.6100    -7.9880 c3         1 CKJ      -0.100900
     28 N39         -0.9430     1.6870    -8.3830 nz         1 CKJ       0.061400
     29 H           -0.5430     0.0020    -0.9380 ha         1 CKJ       0.112500
     30 H01          2.4000     1.0670    -5.5810 hc         1 CKJ       0.055700
     31 HN01         6.3310     2.6120    -3.9550 hn         1 CKJ       0.267800
     32 H02          7.1760     3.8680    -2.0530 h1         1 CKJ       0.026700
     33 H02A         8.0550     2.4210    -1.5410 h1         1 CKJ       0.026700
     34 H03          8.5600     3.9860    -4.0990 hc         1 CKJ       0.019200
     35 H03A         9.4400     2.5390    -3.5860 hc         1 CKJ       0.019200
     36 H04          9.3130     5.1650    -2.0590 hc         1 CKJ       0.015200
     37 H04A        10.1920     3.7180    -1.5470 hc         1 CKJ       0.015200
     38 H05         11.5760     3.8350    -3.5930 hc         1 CKJ       0.003033
     39 H05A        11.7080     5.3280    -2.6540 hc         1 CKJ       0.003033
     40 H05B        10.6970     5.2820    -4.1050 hc         1 CKJ       0.003033
     41 H07          3.1700     0.0000     1.2150 ha         1 CKJ       0.112500
     42 H08          1.9280    -0.0010     3.3410 ha         1 CKJ       0.125500
     43 H10         -1.7700     0.0040     1.1960 ha         1 CKJ       0.125500
     44 H23          4.0620     1.7030     0.2380 h4         1 CKJ      -0.008900
     45 H32          2.1320    -1.8470    -4.7530 h1         1 CKJ       0.048200
     46 H32A         3.6660    -1.0530    -5.1340 h1         1 CKJ       0.048200
     47 H33          1.4780    -1.3570    -7.1650 hc         1 CKJ       0.040950
     48 H33A         2.9900    -0.4700    -7.4230 hc         1 CKJ       0.040950
     49 H35          0.4460     0.5600    -4.1580 hc         1 CKJ       0.040950
     50 H35A        -0.0090    -0.7560    -5.2560 hc         1 CKJ       0.040950
     51 H36          0.2140     2.1810    -6.0100 hc         1 CKJ       0.048200
     52 H36A        -1.2980     1.2940    -5.7500 hc         1 CKJ       0.048200
     53 H37         -0.7100    -0.2440    -7.5920 hx         1 CKJ       0.076700
     54 H38          0.5560    -0.2320    -8.1360 hc         1 CKJ       0.048200
     55 H38A         1.5510     0.8360    -8.9950 hc         1 CKJ       0.048200
     56 HN39        -0.9420     1.3560    -9.3270 hn         1 CKJ       0.227467
     57 HN3A        -0.4830     2.5750    -8.3400 hn         1 CKJ       0.227467
     58 H393        -1.8860     1.7840    -8.0640 hn         1 CKJ       0.227467
     59 N01          6.8110     2.1590    -3.2020 nu         1 CKJ      -0.480900
@<TRIPOS>BOND
     1     1    10 ar  
     2     1    14 ar  
     3     1    29 1   
     4     2    13 1   
     5     3     6 1   
     6     3    21 2   
     7     4    22 1   
     8     4    23 1   
     9     4    24 1   
    10     4    30 1   
    11     5     7 1   
    12     5    32 1   
    13     5    33 1   
    14     5    59 1   
    15     6    20 1   
    16     6    22 1   
    17     7     8 1   
    18     7    34 1   
    19     7    35 1   
    20     8     9 1   
    21     8    36 1   
    22     8    37 1   
    23     9    38 1   
    24     9    39 1   
    25     9    40 1   
    26    10    11 ar  
    27    10    21 1   
    28    11    12 ar  
    29    11    41 1   
    30    12    13 ar  
    31    12    42 1   
    32    13    14 ar  
    33    14    43 1   
    34    15    16 ar  
    35    15    19 ar  
    36    15    44 1   
    37    16    17 ar  
    38    17    18 ar  
    39    17    59 1   
    40    18    20 ar  
    41    19    20 ar  
    42    19    21 1   
    43    22    45 1   
    44    22    46 1   
    45    23    27 1   
    46    23    47 1   
    47    23    48 1   
    48    24    25 1   
    49    24    49 1   
    50    24    50 1   
    51    25    26 1   
    52    25    51 1   
    53    25    52 1   
    54    26    27 1   
    55    26    28 1   
    56    26    53 1   
    57    27    54 1   
    58    27    55 1   
    59    28    56 1   
    60    28    57 1   
    61    28    58 1   
    62    31    59 1   
@<TRIPOS>SUBSTRUCTURE
     1 CKJ         1 TEMP              0 ****  ****    0 ROOT
