@<TRIPOS>MOLECULE
molecule
   59    62     1     0     0
SMALL
bcc


@<TRIPOS>ATOM
      1 C            0.0000     0.0000     0.0000 ca         1 CKJ      -0.077000
      2 F           -0.6730    -0.0030     3.5640 f          1 CKJ      -0.127900
      3 N            1.7800    -0.6060    -2.3880 nc         1 CKJ      -0.517100
      4 C01          1.9240     0.0960    -5.6460 c3         1 CKJ      -0.103700
      5 C02          7.7080     2.9890    -2.3960 c3         1 CKJ       0.193800
      6 N02          2.7320    -0.3800    -3.3880 na         1 CKJ      -0.048800
      7 C03          8.9070     3.4180    -3.2440 c3         1 CKJ      -0.086400
      8 C04          9.8450     4.2860    -2.4010 c3         1 CKJ      -0.082400
      9 C05         11.0440     4.7140    -3.2500 c3         1 CKJ      -0.091100
     10 C06          1.3940     0.0000     0.0000 ca         1 CKJ      -0.128900
     11 C07          2.0870     0.0000     1.2100 ca         1 CKJ      -0.077000
     12 C08          1.3910    -0.0010     2.4000 ca         1 CKJ      -0.168000
     13 C09          0.0050    -0.0020     2.3950 ca         1 CKJ       0.156900
     14 C10         -0.6870     0.0040     1.1960 ca         1 CKJ      -0.168000
     15 C23          4.2800     1.4700    -0.7980 ca         1 CKJ       0.560200
     16 N24          5.3740     1.9300    -1.3770 nb         1 CKJ      -0.800000
     17 C25          5.6500     1.6500    -2.6460 ca         1 CKJ       0.906900
     18 N26          4.8570     0.9050    -3.3960 nb         1 CKJ      -0.807000
     19 C27          3.4090     0.6780    -1.5470 ca         1 CKJ      -0.524500
     20 C28          3.7330     0.4010    -2.8920 ca         1 CKJ       0.539800
     21 C31          2.1390     0.0000    -1.2830 cd         1 CKJ       0.473500
     22 C32          2.6630    -0.9030    -4.7540 c3         1 CKJ       0.093300
     23 C33          1.9610    -0.3900    -7.0970 c3         1 CKJ      -0.054400
     24 C35          0.4710     0.2130    -5.1850 c3         1 CKJ      -0.054400
     25 C36         -0.2690     1.2130    -6.0770 c3         1 CKJ      -0.156900
     26 C37         -0.2330     0.7270    -7.5270 c3         1 CKJ       0.155500
     27 C38          1.2220     0.6100    -7.9880 c3         1 CKJ      -0.156900
     28 N39         -0.9430     1.6870    -8.3830 nz         1 CKJ      -0.814600
     29 H           -0.5430     0.0020    -0.9380 ha         1 CKJ       0.142500
     30 H01          2.4000     1.0670    -5.5810 hc         1 CKJ       0.083700
     31 HN01         6.3310     2.6120    -3.9550 hn         1 CKJ       0.388800
     32 H02          7.1760     3.8680    -2.0530 h1         1 CKJ       0.055700
     33 H02A         8.0550     2.4210    -1.5410 h1         1 CKJ       0.055700
     34 H03          8.5600     3.9860    -4.0990 hc         1 CKJ       0.049700
     35 H03A         9.4400     2.5390    -3.5860 hc         1 CKJ       0.049700
     36 H04          9.3130     5.1650    -2.0590 hc         1 CKJ       0.044700
     37 H04A        10.1920     3.7180    -1.5470 hc         1 CKJ       0.044700
     38 H05         11.5760     3.8350    -3.5930 hc         1 CKJ       0.037033
     39 H05A        11.7080     5.3280    -2.6540 hc         1 CKJ       0.037033
     40 H05B        10.6970     5.2820    -4.1050 hc         1 CKJ       0.037033
     41 H07          3.1700     0.0000     1.2150 ha         1 CKJ       0.142500
     42 H08          1.9280    -0.0010     3.3410 ha         1 CKJ       0.155000
     43 H10         -1.7700     0.0040     1.1960 ha         1 CKJ       0.155000
     44 H23          4.0620     1.7030     0.2380 h4         1 CKJ       0.039100
     45 H32          2.1320    -1.8470    -4.7530 h1         1 CKJ       0.080700
     46 H32A         3.6660    -1.0530    -5.1340 h1         1 CKJ       0.080700
     47 H33          1.4780    -1.3570    -7.1650 hc         1 CKJ       0.073200
     48 H33A         2.9900    -0.4700    -7.4230 hc         1 CKJ       0.073200
     49 H35          0.4460     0.5600    -4.1580 hc         1 CKJ       0.073200
     50 H35A        -0.0090    -0.7560    -5.2560 hc         1 CKJ       0.073200
     51 H36          0.2140     2.1810    -6.0100 hc         1 CKJ       0.077200
     52 H36A        -1.2980     1.2940    -5.7500 hc         1 CKJ       0.077200
     53 H37         -0.7100    -0.2440    -7.5920 hx         1 CKJ       0.092700
     54 H38          0.5560    -0.2320    -8.1360 hc         1 CKJ       0.077200
     55 H38A         1.5510     0.8360    -8.9950 hc         1 CKJ       0.077200
     56 HN39        -0.9420     1.3560    -9.3270 hn         1 CKJ       0.455467
     57 HN3A        -0.4830     2.5750    -8.3400 hn         1 CKJ       0.455467
     58 H393        -1.8860     1.7840    -8.0640 hn         1 CKJ       0.455467
     59 N01          6.8110     2.1590    -3.2020 nu         1 CKJ      -0.769900
@<TRIPOS>BOND
     1    14     1 ar
     2     1    10 ar
     3     1    29 1
     4     2    13 1
     5    21     3 2
     6     3     6 1
     7    22     4 1
     8     4    23 1
     9     4    24 1
    10     4    30 1
    11    17    59 1
    12    59     5 1
    13    59    31 1
    14     5     7 1
    15     5    32 1
    16     5    33 1
    17     6    20 1
    18     6    22 1
    19     7     8 1
    20     7    34 1
    21     7    35 1
    22     9     8 1
    23     8    36 1
    24     8    37 1
    25     9    38 1
    26     9    39 1
    27     9    40 1
    28    11    10 ar
    29    10    21 1
    30    12    11 ar
    31    11    41 1
    32    13    12 ar
    33    12    42 1
    34    13    14 ar
    35    14    43 1
    36    19    15 ar
    37    15    16 ar
    38    15    44 1
    39    16    17 ar
    40    18    17 ar
    41    20    18 ar
    42    21    19 1
    43    19    20 ar
    44    22    45 1
    45    22    46 1
    46    23    27 1
    47    23    47 1
    48    23    48 1
    49    24    25 1
    50    24    49 1
    51    24    50 1
    52    25    26 1
    53    25    51 1
    54    25    52 1
    55    27    26 1
    56    26    28 1
    57    26    53 1
    58    27    54 1
    59    27    55 1
    60    28    56 1
    61    28    57 1
    62    58    28 1
@<TRIPOS>SUBSTRUCTURE
     1 CKJ         1 TEMP              0 ****  ****    0 ROOT
