@<TRIPOS>MOLECULE
molecule
   67    71     1     0     0
SMALL
bcc


@<TRIPOS>ATOM
      1 N14          0.0000     0.0000     0.0000 ns         1 CKK      -0.491100
      2 C17          3.6790     0.0000     0.0000 ca         1 CKK       0.177900
      3 C16          2.3730     0.0000     0.4530 ca         1 CKK      -0.164000
      4 C15          1.3240     0.0010    -0.4590 ca         1 CKK       0.121600
      5 C19          1.5880     0.0030    -1.8210 ca         1 CKK      -0.183000
      6 C20          2.8930     0.0030    -2.2730 ca         1 CKK      -0.091000
      7 C21          3.9420     0.0020    -1.3650 ca         1 CKK       0.021100
      8 C23          5.9230     1.1600    -1.7420 cc         1 CKK       0.738600
      9 C12         -0.2960     0.5160     1.2090 c          1 CKK       0.770100
     10 C27          7.2920     1.1930    -2.0870 cc         1 CKK      -0.269600
     11 C33          7.1720    -2.8030    -4.4420 c3         1 CKK       0.167800
     12 C2          -3.4230     2.6540     7.3060 ca         1 CKK       0.146900
     13 C3          -3.6890     3.3930     6.1670 ca         1 CKK      -0.162000
     14 C4          -3.6280     2.7920     4.9240 ca         1 CKK      -0.082500
     15 C5          -3.0910     1.3140     7.2000 ca         1 CKK      -0.162000
     16 C6          -3.0310     0.7150     5.9560 ca         1 CKK      -0.082500
     17 C7          -3.3030     1.4530     4.8190 ca         1 CKK      -0.099300
     18 C8          -3.2370     0.7980     3.4620 c3         1 CKK      -0.102100
     19 O10         -0.9830     1.4860     3.5560 o          1 CKK      -0.493100
     20 N11         -1.5450     0.4060     1.7030 ns         1 CKK      -0.593500
     21 O13          0.5640     1.0830     1.8550 o          1 CKK      -0.561100
     22 O22          5.2270     0.0020    -1.8110 os         1 CKK      -0.352400
     23 N24          5.3310     2.2730    -1.3440 nd         1 CKK      -0.832000
     24 C25          5.9940     3.4250    -1.2630 cd         1 CKK       0.693900
     25 N26          7.2590     3.5260    -1.5670 nc         1 CKK      -0.542800
     26 N28          7.9660     2.3960    -2.0030 na         1 CKK       0.241200
     27 C29          9.2450     2.1970    -2.3750 cc         1 CKK      -0.088100
     28 C30          9.4150     0.8870    -2.7000 cd         1 CKK      -0.178000
     29 C31          8.1910     0.2390    -2.5240 cd         1 CKK      -0.104200
     30 C32          7.9060    -1.2210    -2.7630 c3         1 CKK       0.241000
     31 N34          7.2520    -1.3850    -4.0680 n3         1 CKK      -0.729600
     32 C35          5.9230    -0.7600    -4.0720 c3         1 CKK       0.167800
     33 C36          5.3330    -0.8210    -5.4820 c3         1 CKK      -0.103400
     34 C37          5.2300    -2.2840    -5.9240 c3         1 CKK       0.075500
     35 C38          6.6190    -2.9260    -5.8640 c3         1 CKK      -0.103400
     36 N39          4.7190    -2.3470    -7.2990 nz         1 CKK      -0.868600
     37 HN14        -0.7250    -0.3930    -0.5670 hn         1 CKK       0.322500
     38 H16          2.1680    -0.0010     1.5160 ha         1 CKK       0.205000
     39 H19          0.7690     0.0040    -2.5300 ha         1 CKK       0.137000
     40 H20          3.0980     0.0040    -3.3360 ha         1 CKK       0.123000
     41 H33          8.1610    -3.2420    -4.4020 h1         1 CKK       0.066950
     42 H33A         6.5130    -3.3200    -3.7550 h1         1 CKK       0.066950
     43 H5          -2.8790     0.7360     8.0910 ha         1 CKK       0.150000
     44 H6          -2.7740    -0.3340     5.8720 ha         1 CKK       0.134500
     45 H8          -3.4980    -0.2490     3.5540 hc         1 CKK       0.069200
     46 H8A         -3.9340     1.2860     2.7920 hc         1 CKK       0.069200
     47 HN11        -2.2540    -0.0590     1.1700 hn         1 CKK       0.315500
     48 H25          5.4650     4.3110    -0.9320 h5         1 CKK       0.090100
     49 H29         10.0150     2.9580    -2.4100 h4         1 CKK       0.194000
     50 H30         10.3480     0.4190    -2.9870 ha         1 CKK       0.168000
     51 H32          7.2550    -1.5950    -1.9820 h1         1 CKK       0.058200
     52 H32A         8.8360    -1.7770    -2.7530 h1         1 CKK       0.058200
     53 H35          5.2730    -1.2910    -3.3870 h1         1 CKK       0.066950
     54 H35A         6.0110     0.2750    -3.7640 h1         1 CKK       0.066950
     55 H36          4.3460    -0.3750    -5.4800 hc         1 CKK       0.071450
     56 H36A         5.9770    -0.2820    -6.1660 hc         1 CKK       0.071450
     57 H37          4.5600    -2.8150    -5.2590 hx         1 CKK       0.107700
     58 H38          6.5440    -3.9730    -6.1320 hc         1 CKK       0.071450
     59 H38A         7.2820    -2.4170    -6.5540 hc         1 CKK       0.071450
     60 HN39         4.0640    -2.8500    -6.7340 hn         1 CKK       0.477133
     61 HN3A         5.2590    -2.9170    -7.9190 hn         1 CKK       0.477133
     62 C9          -1.8400     0.9220     2.9120 c          1 CKK       0.651100
     63 H3          -3.9440     4.4430     6.2490 ha         1 CKK       0.150000
     64 F1          -3.4820     3.2410     8.5220 f          1 CKK      -0.135900
     65 H393         4.3780    -1.4770    -7.6570 hn         1 CKK       0.477133
     66 F18          4.7010     0.0050     0.8840 f          1 CKK      -0.113900
     67 H4          -3.8390     3.3700     4.0320 ha         1 CKK       0.134500
@<TRIPOS>BOND
     1     1     4 1
     2     1     9 1
     3     2     3 ar
     4     2     7 ar
     5     2    66 1
     6     3     4 ar
     7     4     5 ar
     8     5     6 ar
     9     6     7 ar
    10     7    22 1
    11     8    10 1
    12     8    22 1
    13     8    23 2
    14     9    20 1
    15     9    21 2
    16    10    26 1
    17    10    29 2
    18    11    31 1
    19    11    35 1
    20    64    12 1
    21    12    13 ar
    22    12    15 ar
    23    13    14 ar
    24    14    17 ar
    25    15    16 ar
    26    16    17 ar
    27    17    18 1
    28    18    62 1
    29    62    19 2
    30    62    20 1
    31    23    24 1
    32    24    25 2
    33    25    26 1
    34    26    27 1
    35    27    28 2
    36    28    29 1
    37    29    30 1
    38    30    31 1
    39    31    32 1
    40    32    33 1
    41    33    34 1
    42    34    35 1
    43    34    36 1
    44     1    37 1
    45     3    38 1
    46     5    39 1
    47     6    40 1
    48    11    41 1
    49    11    42 1
    50    13    63 1
    51    14    67 1
    52    15    43 1
    53    16    44 1
    54    18    45 1
    55    18    46 1
    56    20    47 1
    57    24    48 1
    58    27    49 1
    59    28    50 1
    60    30    51 1
    61    30    52 1
    62    32    53 1
    63    32    54 1
    64    33    55 1
    65    33    56 1
    66    34    57 1
    67    35    58 1
    68    35    59 1
    69    36    60 1
    70    36    61 1
    71    65    36 1
@<TRIPOS>SUBSTRUCTURE
     1 CKK         1 TEMP              0 ****  ****    0 ROOT
