@<TRIPOS>MOLECULE
molecule
   78    82     1     0     0
SMALL
bcc


@<TRIPOS>ATOM
      1 C2           0.0000     0.0000     0.0000 c3         1 CKM       0.247500
      2 C7          -3.8110     0.6570    -0.0750 ca         1 CKM      -0.032500
      3 C9          -5.6700     0.6700     1.4340 ca         1 CKM      -0.073000
      4 C10         -5.0360     1.6240     2.2070 ca         1 CKM      -0.150000
      5 C11         -3.7870     2.0900     1.8440 ca         1 CKM      -0.032500
      6 C12         -0.0710    -1.0370    -2.2720 c3         1 CKM      -0.038100
      7 C13         -0.4820    -0.8260    -3.7060 ca         1 CKM      -0.153300
      8 C15         -2.1290    -0.9930    -5.4490 ca         1 CKM      -0.151000
      9 C18          0.4100    -0.2730    -4.6080 ca         1 CKM       0.155900
     10 C20         -3.6720    -2.5200    -3.6670 c          1 CKM       0.657100
     11 C22         -4.7130    -3.0290    -2.7030 c3         1 CKM      -0.153400
     12 C8          -5.0580     0.1860     0.2930 ca         1 CKM      -0.150000
     13 C16         -1.2360    -0.4350    -6.3440 ca         1 CKM      -0.087000
     14 C26         -4.1470    -5.7800    -3.2650 ca         1 CKM      -0.095000
     15 C30         -5.4080    -5.5440    -5.2880 ca         1 CKM      -0.095000
     16 C31         -8.1660    -3.9770    -2.8350 ca         1 CKM      -0.095000
     17 C35         -6.5510    -4.9400    -1.3510 ca         1 CKM      -0.095000
     18 C17          0.0320    -0.0780    -5.9250 ca         1 CKM      -0.183000
     19 C27         -3.5420    -6.9140    -3.7740 ca         1 CKM      -0.162500
     20 C29         -4.8000    -6.6740    -5.8010 ca         1 CKM      -0.162500
     21 C32         -9.1820    -4.3550    -1.9770 ca         1 CKM      -0.162500
     22 C34         -7.5650    -5.3240    -0.4950 ca         1 CKM      -0.162500
     23 C25         -5.0810    -5.0970    -4.0210 ca         1 CKM      -0.089300
     24 C24         -6.8520    -4.2720    -2.5240 ca         1 CKM      -0.089300
     25 C14         -1.7540    -1.1890    -4.1260 ca         1 CKM       0.087600
     26 C28         -3.8670    -7.3620    -5.0430 ca         1 CKM       0.133900
     27 C33         -8.8820    -5.0280    -0.8050 ca         1 CKM       0.133900
     28 C6          -3.1750     1.6070     0.7010 ca         1 CKM      -0.308500
     29 C            1.6110     1.2200     2.0940 c3         1 CKM       0.150800
     30 C1           1.5320     0.0000     0.0000 c3         1 CKM       0.149800
     31 C38          0.0810     1.2700     2.1800 c3         1 CKM       0.247500
     32 C39         -0.3560     2.6110     2.7720 c3         1 CKM      -0.122100
     33 C4          -0.5140     0.1620    -1.4320 c3         1 CKM      -0.105400
     34 C23         -5.7450    -3.8650    -3.4630 c3         1 CKM       0.042900
     35 N3          -0.4670     1.1240     0.8230 n3         1 CKM      -0.811500
     36 N            2.0180     0.0000     1.3860 n7         1 CKM      -0.821200
     37 O21         -3.7480    -2.7970    -4.8450 o          1 CKM      -0.581100
     38 F37         -3.2720    -8.4660    -5.5440 f          1 CKM      -0.140900
     39 F36         -9.8750    -5.3990     0.0330 f          1 CKM      -0.140900
     40 F            1.6500     0.0770    -4.2020 f          1 CKM      -0.142900
     41 S           -1.5830     2.2010     0.2380 sy         1 CKM       1.420200
     42 H1          -0.3620    -0.9310     0.4190 h1         1 CKM       0.054700
     43 H2          -3.3310     0.2780    -0.9690 ha         1 CKM       0.146000
     44 H3          -6.6490     0.3030     1.7200 ha         1 CKM       0.136000
     45 H4          -5.5170     2.0020     3.1010 ha         1 CKM       0.135500
     46 H5          -3.2890     2.8360     2.4510 ha         1 CKM       0.146000
     47 H6          -0.5400    -1.9370    -1.8910 hc         1 CKM       0.051200
     48 H7           1.0060    -1.1400    -2.2160 hc         1 CKM       0.051200
     49 H8          -3.1220    -1.2750    -5.7790 ha         1 CKM       0.176000
     50 H9          -2.5420    -1.6000    -2.2370 hn         1 CKM       0.325500
     51 H10         -5.2060    -2.1900    -2.2280 hc         1 CKM       0.066200
     52 H11         -4.2370    -3.6430    -1.9480 hc         1 CKM       0.066200
     53 H12         -5.5560    -0.5600    -0.3150 ha         1 CKM       0.135500
     54 H13         -1.5290    -0.2820    -7.3750 ha         1 CKM       0.140000
     55 H15         -6.1390    -5.0070    -5.8800 ha         1 CKM       0.135250
     56 H16         -8.4010    -3.4510    -3.7530 ha         1 CKM       0.135250
     57 H17         -5.5210    -5.1710    -1.1080 ha         1 CKM       0.135250
     58 H18          0.7310     0.3580    -6.6300 ha         1 CKM       0.144000
     59 H19         -2.8110    -7.4510    -3.1820 ha         1 CKM       0.146000
     60 H20         -5.0560    -7.0240    -6.7940 ha         1 CKM       0.146000
     61 H21        -10.2110    -4.1230    -2.2210 ha         1 CKM       0.146000
     62 H22         -7.3300    -5.8490     0.4230 ha         1 CKM       0.146000
     63 H23          2.0280     1.2130     3.0940 h1         1 CKM       0.042200
     64 H24          1.9700     2.0880     1.5530 h1         1 CKM       0.042200
     65 H25          1.8920     0.8860    -0.5080 h1         1 CKM       0.045700
     66 H26          1.8920    -0.8860    -0.5080 h1         1 CKM       0.045700
     67 H27         -0.2730     0.4580     2.8030 h1         1 CKM       0.058700
     68 H28         -1.4370     2.6440     2.8320 hc         1 CKM       0.059033
     69 H29          0.0640     2.7230     3.7640 hc         1 CKM       0.059033
     70 H30         -0.0060     3.4170     2.1380 hc         1 CKM       0.059033
     71 H31         -1.5960     0.2170    -1.4230 hc         1 CKM       0.079700
     72 H32         -0.1090     1.0710    -1.8600 hc         1 CKM       0.079700
     73 H33         -6.1580    -3.2780    -4.2740 hc         1 CKM       0.080700
     74 H34          3.0170    -0.0700     1.3890 hn         1 CKM       0.358800
     75 N19         -2.6560    -1.7550    -3.2190 ns         1 CKM      -0.472100
     76 O           -1.5190     2.1140    -1.1790 o          1 CKM      -0.639300
     77 O5          -1.3830     3.4130     0.9520 o          1 CKM      -0.639300
     78 H14         -3.8920    -5.4300    -2.2730 ha         1 CKM       0.135250
@<TRIPOS>BOND
     1    39    27 1
     2    27    21 ar
     3    27    22 ar
     4    21    16 ar
     5    22    17 ar
     6    16    24 ar
     7    38    26 1
     8    17    24 ar
     9    20    26 ar
    10    20    15 ar
    11    24    34 1
    12    26    19 ar
    13    15    23 ar
    14    19    14 ar
    15     4     3 ar
    16     4     5 ar
    17    23    14 ar
    18    23    34 1
    19     3    12 ar
    20    34    11 1
    21     5    28 ar
    22    12     2 ar
    23    11    10 1
    24    76    41 2
    25    28     2 ar
    26    28    41 1
    27    41    77 2
    28    41    35 1
    29    10    75 1
    30    10    37 2
    31    30     1 1
    32    30    36 1
    33     1    35 1
    34     1    33 1
    35    75    25 1
    36    35    31 1
    37    33     6 1
    38     6     7 1
    39    36    29 1
    40    29    31 1
    41    31    32 1
    42    25     7 ar
    43    25     8 ar
    44     7     9 ar
    45     8    13 ar
    46     9    40 1
    47     9    18 ar
    48    13    18 ar
    49     1    42 1
    50     2    43 1
    51     3    44 1
    52     4    45 1
    53     5    46 1
    54     6    47 1
    55     6    48 1
    56     8    49 1
    57    75    50 1
    58    11    51 1
    59    11    52 1
    60    12    53 1
    61    13    54 1
    62    14    78 1
    63    15    55 1
    64    16    56 1
    65    17    57 1
    66    18    58 1
    67    19    59 1
    68    20    60 1
    69    21    61 1
    70    22    62 1
    71    29    63 1
    72    29    64 1
    73    30    65 1
    74    30    66 1
    75    31    67 1
    76    32    68 1
    77    32    69 1
    78    32    70 1
    79    33    71 1
    80    33    72 1
    81    34    73 1
    82    36    74 1
@<TRIPOS>SUBSTRUCTURE
     1 CKM         1 TEMP              0 ****  ****    0 ROOT
