@<TRIPOS>MOLECULE
molecule
   65    68     1     0     0
SMALL
bcc


@<TRIPOS>ATOM
      1 C1           1.5300     0.0000     0.0000 c3         1 CKN       0.023500
      2 C2           2.0330     0.0000     1.4200 cc         1 CKN      -0.163200
      3 C3           2.7420    -1.0090     2.0430 cd         1 CKN      -0.266600
      4 N6          -1.8270    -0.1450    -1.6600 nz         1 CKN      -0.687400
      5 C7           3.5690    -4.1490    -1.5510 c3         1 CKN      -0.092400
      6 C8           3.9630    -5.5710    -1.9510 c3         1 CKN      -0.075400
      7 C9           2.8420    -6.5390    -1.5630 c3         1 CKN       0.182500
      8 C10          2.6180    -6.4790    -0.0510 c3         1 CKN      -0.075400
      9 C11          2.2240    -5.0550     0.3500 c3         1 CKN      -0.092400
     10 C12          3.5220    -7.9090    -3.5610 c3         1 CKN       0.150300
     11 C13          4.0810    -9.2910    -3.9160 c3         1 CKN       0.109000
     12 C14          2.6640   -10.2490    -2.0590 c3         1 CKN       0.109000
     13 C15          2.1610    -8.8290    -1.7780 c3         1 CKN       0.150300
     14 C16          2.6950   -11.2810    -4.2840 c          1 CKN       0.661100
     15 C19          1.8770     1.0220     2.3580 cc         1 CKN      -0.200000
     16 C20          0.0000     0.0000     0.0000 c3         1 CKN      -0.153400
     17 C21         -0.5030    -0.1240    -1.4150 c          1 CKN       0.475100
     18 O1           0.2850    -0.2050    -2.3330 o          1 CKN      -0.397100
     19 C            2.0410     1.2490    -0.7210 c3         1 CKN      -0.099100
     20 C18          2.4750     0.6260     3.5120 cd         1 CKN      -0.088100
     21 N            3.0020    -0.6000     3.3370 na         1 CKN       0.256200
     22 N1           3.7180    -1.4660     4.1770 nd         1 CKN      -0.574800
     23 C4           4.1200    -2.6240     3.7310 cc         1 CKN       0.707900
     24 N2           3.8750    -3.0320     2.4860 nc         1 CKN      -0.843000
     25 C5           3.2070    -2.2780     1.6290 cd         1 CKN       0.784200
     26 N3           2.9680    -2.7250     0.3450 nu         1 CKN      -0.893900
     27 C6           3.3450    -4.0880    -0.0390 c3         1 CKN       0.233500
     28 N4           3.2110    -7.8630    -2.1260 n3         1 CKN      -0.742600
     29 N5           3.1290   -10.3120    -3.4530 n          1 CKN      -0.499800
     30 C17          3.1850   -11.3270    -5.7090 c3         1 CKN      -0.170100
     31 O            1.9110   -12.1160    -3.8860 o          1 CKN      -0.604100
     32 H1           1.8920    -0.8850    -0.5110 hc         1 CKN       0.061700
     33 H2          -2.2130     0.7630    -1.4900 hn         1 CKN       0.478133
     34 H3          -1.9850    -0.4010    -2.6150 hn         1 CKN       0.478133
     35 H4           2.6550    -3.8710    -2.0620 hc         1 CKN       0.043450
     36 H5           4.3630    -3.4650    -1.8250 hc         1 CKN       0.043450
     37 H6           4.1200    -5.6130    -3.0220 hc         1 CKN       0.060950
     38 H7           4.8740    -5.8510    -1.4360 hc         1 CKN       0.060950
     39 H8           1.9170    -6.1960    -2.0110 h1         1 CKN       0.009700
     40 H9           3.5320    -6.7570     0.4600 hc         1 CKN       0.060950
     41 H10          1.8230    -7.1620     0.2220 hc         1 CKN       0.060950
     42 H11          2.0690    -5.0130     1.4220 hc         1 CKN       0.043450
     43 H12          1.3130    -4.7760    -0.1640 hc         1 CKN       0.043450
     44 H13          2.6190    -7.7290    -4.1310 h1         1 CKN       0.040200
     45 H14          4.2610    -7.1520    -3.7940 h1         1 CKN       0.040200
     46 H15          5.0350    -9.4350    -3.4230 h1         1 CKN       0.065200
     47 H16          4.2040    -9.3690    -4.9890 h1         1 CKN       0.065200
     48 H17          3.4840   -10.4830    -1.3920 h1         1 CKN       0.065200
     49 H18          1.8560   -10.9560    -1.9140 h1         1 CKN       0.065200
     50 H19          1.9180    -8.7350    -0.7270 h1         1 CKN       0.040200
     51 H20          1.2800    -8.6340    -2.3770 h1         1 CKN       0.040200
     52 H21          1.3930     1.9750     2.1870 ha         1 CKN       0.155000
     53 H22         -0.3610    -0.8370     0.5860 hc         1 CKN       0.100200
     54 H23         -0.3610     0.9260     0.4320 hc         1 CKN       0.100200
     55 H24          2.1610     1.0340    -1.7760 hc         1 CKN       0.053367
     56 H25          2.9950     1.5440    -0.3020 hc         1 CKN       0.053367
     57 H26          1.3280     2.0550    -0.5960 hc         1 CKN       0.053367
     58 H27          2.5230     1.2050     4.4260 h4         1 CKN       0.195000
     59 H28          4.7050    -3.2070     4.4310 h5         1 CKN       0.088100
     60 H29          2.5780    -2.1040    -0.3360 hn         1 CKN       0.442800
     61 H30          4.2570    -4.3730     0.4710 h1         1 CKN       0.101700
     62 H32          2.7900   -12.2090    -6.1980 hc         1 CKN       0.061700
     63 H33          2.8490   -10.4420    -6.2350 hc         1 CKN       0.061700
     64 H34          4.2680   -11.3630    -5.7170 hc         1 CKN       0.061700
     65 H63         -2.2640    -0.8280    -1.0740 hn         1 CKN       0.478133
@<TRIPOS>BOND
     1    30    14 1
     2    12    13 1
     3    12    29 1
     4    13    28 1
     5    14    29 1
     6    14    31 2
     7     4    17 1
     8    29    11 1
     9    17    18 2
    10    17    16 1
    11    28     7 1
    12    28    10 1
    13     7     6 1
    14     7     8 1
    15    16     1 1
    16     6     5 1
    17    11    10 1
    18     5    27 1
    19    19     1 1
    20     8     9 1
    21     1     2 1
    22     9    27 1
    23    27    26 1
    24    26    25 1
    25     2     3 2
    26     2    15 1
    27    25     3 1
    28    25    24 2
    29     3    21 1
    30    15    20 2
    31    24    23 1
    32    21    20 1
    33    21    22 1
    34    23    22 2
    35     1    32 1
    36     4    33 1
    37     4    34 1
    38     5    35 1
    39     5    36 1
    40     6    37 1
    41     6    38 1
    42     7    39 1
    43     8    40 1
    44     8    41 1
    45     9    42 1
    46     9    43 1
    47    10    44 1
    48    10    45 1
    49    11    46 1
    50    11    47 1
    51    12    48 1
    52    12    49 1
    53    13    50 1
    54    13    51 1
    55    15    52 1
    56    16    53 1
    57    16    54 1
    58    19    55 1
    59    19    56 1
    60    19    57 1
    61    20    58 1
    62    23    59 1
    63    26    60 1
    64    27    61 1
    65    30    62 1
    66    30    63 1
    67    30    64 1
    68    65     4 1
@<TRIPOS>SUBSTRUCTURE
     1 CKN         1 TEMP              0 ****  ****    0 ROOT
