@<TRIPOS>MOLECULE
CKP
   25    25     1     0     0
SMALL
bcc


@<TRIPOS>ATOM
      1 O3P        -0.5020   -1.9270   -0.1390 o         1 CKP     -0.942500
      2 P           0.3190   -0.6670    0.0360 p5        1 CKP      1.330900
      3 O1P         0.7080   -0.3550    1.4580 o         1 CKP     -0.942500
      4 O2P        -0.0970    0.5130   -0.8000 o         1 CKP     -0.942500
      5 O1          1.8080   -1.1580   -0.6860 os        1 CKP     -0.577200
      6 C1          2.4810   -2.1590   -0.0260 c3        1 CKP      0.222400
      7 C2          2.4070   -3.4950   -0.8010 c3        1 CKP      0.077100
      8 O2          4.2150   -5.6230    0.8390 oh        1 CKP     -0.644800
      9 C3          1.3500   -4.4680   -0.2470 c3        1 CKP      0.119100
     10 O3          0.2260   -4.5580   -1.0940 oh        1 CKP     -0.660800
     11 C4          2.0510   -5.8430   -0.1520 c3        1 CKP      0.144100
     12 O4          1.5170   -6.8170   -1.0140 oh        1 CKP     -0.616800
     13 C5          3.5510   -5.5360   -0.4120 c3        1 CKP      0.191600
     14 O5          3.6870   -4.1580   -0.7510 os        1 CKP     -0.448600
     15 C6          4.2830   -6.4200   -1.4660 c         1 CKP      0.918600
     16 O6B         3.7150   -6.7220   -2.5510 o         1 CKP     -0.858300
     17 O6A         5.4490   -6.8170   -1.1560 o         1 CKP     -0.858300
     18 H11         3.5740   -1.8820    0.0520 h1        1 CKP     -0.002800
     19 H12         2.0730   -2.2930    1.0150 h1        1 CKP     -0.002800
     20 H2          2.2000   -3.2820   -1.8850 h1        1 CKP      0.057700
     21 HO2         5.1590   -5.6690    0.6370 ho        1 CKP      0.410000
     22 H3          1.0190   -4.1410    0.7770 h1        1 CKP      0.055700
     23 HO3        -0.2270   -3.6880   -1.0060 ho        1 CKP      0.485000
     24 H4          1.9270   -6.2780    0.8770 h1        1 CKP      0.048700
     25 HO4         1.6950   -6.5160   -1.9190 ho        1 CKP      0.437000
@<TRIPOS>BOND
     1    1    2 1   
     2    2    3 1   
     3    2    4 1   
     4    2    5 1   
     5    5    6 1   
     6    6    7 1   
     7    6   18 1   
     8    6   19 1   
     9    7    9 1   
    10    7   14 1   
    11    7   20 1   
    12    8   13 1   
    13    8   21 1   
    14    9   10 1   
    15    9   11 1   
    16    9   22 1   
    17   10   23 1   
    18   11   12 1   
    19   11   13 1   
    20   11   24 1   
    21   12   25 1   
    22   13   14 1   
    23   13   15 1   
    24   15   16 1   
    25   15   17 1   
@<TRIPOS>SUBSTRUCTURE
     1 CKP         1 TEMP              0 ****  ****    0 ROOT
