@<TRIPOS>MOLECULE
molecule
   25    25     1     0     0
SMALL
bcc


@<TRIPOS>ATOM
      1 O3P          0.0000     0.0000     0.0000 o          1 CKP      -0.926500
      2 P            1.6090     0.0000     0.0000 p5         1 CKP       1.208900
      3 O1P          2.1030     0.0000     1.3950 o          1 CKP      -0.926500
      4 O2P          2.1460    -1.3140    -0.7590 o          1 CKP      -0.926500
      5 O1           2.1460     1.3150    -0.7590 os         1 CKP      -0.573200
      6 C1           3.5320     1.6570    -0.8360 c3         1 CKP       0.228400
      7 C2           3.6910     2.9590    -1.6240 c3         1 CKP       0.133100
      8 O2           2.9180     5.8050    -2.4650 oh         1 CKP      -0.622800
      9 C3           5.1870     3.3500    -1.7360 c3         1 CKP       0.085100
     10 O3           5.7980     2.7110    -2.8580 oh         1 CKP      -0.594800
     11 C4           5.1080     4.8820    -1.9470 c3         1 CKP       0.119100
     12 O4           5.2130     5.2010    -3.3350 oh         1 CKP      -0.574800
     13 C5           3.7150     5.2640    -1.4090 c3         1 CKP       0.222600
     14 O5           3.1080     4.0660    -0.9020 os         1 CKP      -0.365600
     15 C6           3.8550     6.2800    -0.3030 c          1 CKP       0.893600
     16 O6B          3.2620     7.3300    -0.3690 o          1 CKP      -0.850800
     17 O6A          4.6370     6.0150     0.7550 o          1 CKP      -0.850800
     18 H3           3.9270     1.7890     0.1630 h1         1 CKP       0.015200
     19 H4           4.0720     0.8630    -1.3370 h1         1 CKP       0.015200
     20 H5           3.2470     2.8740    -2.6090 h1         1 CKP       0.058700
     21 H6           2.0430     5.9610    -2.1500 ho         1 CKP       0.405000
     22 H7           5.7120     3.1170    -0.8180 h1         1 CKP       0.053700
     23 H8           6.6490     2.3880    -2.6110 ho         1 CKP       0.365000
     24 H9           5.8820     5.3810    -1.3770 h1         1 CKP       0.049700
     25 H10          5.9710     5.7440    -3.4760 ho         1 CKP       0.358000
@<TRIPOS>BOND
     1    10     9 1
     2     9     7 1
     3     9    11 1
     4     3     2 1
     5     6     7 1
     6     6     5 1
     7     7    14 1
     8     4     2 1
     9    12    11 1
    10     2     5 1
    11     2     1 1
    12    11    13 1
    13     8    13 1
    14    14    13 1
    15    13    15 1
    16    15    16 1
    17    15    17 1
    18     6    18 1
    19     6    19 1
    20     7    20 1
    21     8    21 1
    22     9    22 1
    23    10    23 1
    24    11    24 1
    25    12    25 1
@<TRIPOS>SUBSTRUCTURE
     1 CKP         1 TEMP              0 ****  ****    0 ROOT
