@<TRIPOS>MOLECULE
molecule
   51    54     1     0     0
SMALL
bcc


@<TRIPOS>ATOM
      1 O5'          0.0000     0.0000     0.0000 os         1 CKQ      -0.380600
      2 C5'          1.4290     0.0000     0.0000 c3         1 CKQ       0.146100
      3 C4'          1.9380     0.0000     1.4430 c3         1 CKQ       0.103100
      4 C3'          1.3750     1.2220     2.1750 c3         1 CKQ       0.102100
      5 C2'         -0.1550     1.1890     2.0980 c3         1 CKQ       0.113100
      6 C1'         -0.5840     1.1430     0.6290 c3         1 CKQ       0.142800
      7 C1          -2.0850     1.0500     0.5460 cc         1 CKQ       0.356800
      8 O2'         -0.6890     2.3620     2.7150 oh         1 CKQ      -0.601800
      9 O3'          1.7850     1.1910     3.5440 oh         1 CKQ      -0.606800
     10 O4'          3.3660     0.0570     1.4460 oh         1 CKQ      -0.606800
     11 C6'          1.9380    -1.2490    -0.7210 c3         1 CKQ       0.152400
     12 O6'          1.5600    -1.1940    -2.0980 oh         1 CKQ      -0.598800
     13 N5          -2.9030     1.8890    -0.1360 na         1 CKQ      -0.420700
     14 C4          -4.1730     1.4240     0.0710 cc         1 CKQ       0.451000
     15 N3          -4.0730     0.3630     0.8420 nd         1 CKQ      -0.361000
     16 N2          -2.8350     0.1440     1.1140 nd         1 CKQ      -0.344000
     17 C6          -5.4220     2.0040    -0.4680 ca         1 CKQ      -0.160500
     18 C11         -5.3700     3.1380    -1.2820 ca         1 CKQ      -0.098500
     19 C10         -6.5330     3.6770    -1.7840 ca         1 CKQ      -0.139000
     20 C9          -7.7630     3.0920    -1.4800 cp         1 CKQ       0.028000
     21 C8          -7.8150     1.9590    -0.6660 ca         1 CKQ      -0.139000
     22 C7          -6.6530     1.4160    -0.1680 ca         1 CKQ      -0.098500
     23 C12         -9.0140     3.6740    -2.0190 cp         1 CKQ      -0.095000
     24 C17         -8.9610     4.8040    -2.8370 ca         1 CKQ      -0.136000
     25 C16        -10.1230     5.3460    -3.3390 ca         1 CKQ      -0.106500
     26 C15        -11.3550     4.7640    -3.0310 ca         1 CKQ      -0.080600
     27 C14        -11.4060     3.6320    -2.2120 ca         1 CKQ      -0.106500
     28 C13        -10.2430     3.0890    -1.7150 ca         1 CKQ      -0.136000
     29 C18        -12.6010     5.3430    -3.5680 c          1 CKQ       0.878200
     30 O19        -12.5550     6.3270    -4.2800 o          1 CKQ      -0.832300
     31 O20        -13.7890     4.7820    -3.2700 o          1 CKQ      -0.832300
     32 H1           1.7880     0.8870    -0.5080 h1         1 CKQ       0.060700
     33 H2           1.6070    -0.9030     1.9420 h1         1 CKQ       0.061700
     34 H3           1.7400     2.1260     1.7030 h1         1 CKQ       0.056700
     35 H4          -0.5220     0.3060     2.6080 h1         1 CKQ       0.080700
     36 H5          -0.2440     2.0410     0.1280 h1         1 CKQ       0.049700
     37 H6          -0.9040     2.1750     3.6140 ho         1 CKQ       0.420000
     38 H7           2.2920     1.9620     3.7380 ho         1 CKQ       0.412000
     39 H8           3.7030    -0.5230     2.1090 ho         1 CKQ       0.412000
     40 H9           1.5070    -2.1310    -0.2630 h1         1 CKQ       0.036200
     41 H10          3.0180    -1.2950    -0.6450 h1         1 CKQ       0.036200
     42 H11          1.9170    -1.9380    -2.5520 ho         1 CKQ       0.402000
     43 H12         -2.6330     2.6840    -0.6800 hn         1 CKQ       0.310700
     44 H13         -4.4160     3.5920    -1.5190 ha         1 CKQ       0.128500
     45 H14         -6.4930     4.5570    -2.4160 ha         1 CKQ       0.143000
     46 H15         -8.7690     1.5040    -0.4310 ha         1 CKQ       0.143000
     47 H16         -6.6930     0.5360     0.4640 ha         1 CKQ       0.128500
     48 H17         -8.0060     5.2560    -3.0770 ha         1 CKQ       0.109500
     49 H18        -10.0820     6.2230    -3.9740 ha         1 CKQ       0.154000
     50 H19        -12.3610     3.1790    -1.9740 ha         1 CKQ       0.154000
     51 H20        -10.2830     2.2120    -1.0800 ha         1 CKQ       0.109500
@<TRIPOS>BOND
     1     9     4 1
     2    10     3 1
     3     4     3 1
     4     4     5 1
     5     3     2 1
     6     8     5 1
     7     5     6 1
     8    12    11 1
     9     2    11 1
    10     2     1 1
    11     6     1 1
    12     6     7 1
    13    16     7 2
    14    16    15 1
    15     7    13 1
    16    15    14 2
    17    13    14 1
    18    14    17 1
    19    17    22 ar
    20    17    18 ar
    21    22    21 ar
    22    18    19 ar
    23    21    20 ar
    24    19    20 ar
    25    20    23 1
    26    23    28 ar
    27    23    24 ar
    28    28    27 ar
    29    24    25 ar
    30    27    26 ar
    31    25    26 ar
    32    26    29 1
    33    29    30 1
    34    29    31 1
    35     2    32 1
    36     3    33 1
    37     4    34 1
    38     5    35 1
    39     6    36 1
    40     8    37 1
    41     9    38 1
    42    10    39 1
    43    11    40 1
    44    11    41 1
    45    12    42 1
    46    13    43 1
    47    18    44 1
    48    19    45 1
    49    21    46 1
    50    22    47 1
    51    24    48 1
    52    25    49 1
    53    27    50 1
    54    28    51 1
@<TRIPOS>SUBSTRUCTURE
     1 CKQ         1 TEMP              0 ****  ****    0 ROOT
