@<TRIPOS>MOLECULE
CKR
   44    47     1     0     0
SMALL
bcc


@<TRIPOS>ATOM
      1 N2           0.0000     0.0000     0.0000 nc         1 CKR      -0.585100
      2 C3           1.3620     0.0000     0.0000 ca         1 CKR       0.144400
      3 C4           2.3080     0.0000     1.0200 ca         1 CKR       0.028000
      4 C5           3.6610    -0.0010     0.6960 ca         1 CKR      -0.158600
      5 C6           4.6990    -0.0010     1.7360 c          1 CKR       0.626100
      6 O1           4.4080     0.0010     2.9180 o          1 CKR      -0.588500
      7 N7           5.9910    -0.0030     1.3330 ns         1 CKR      -0.042400
      8 C8           6.3040    -0.0040     0.0040 cc         1 CKR      -0.031200
      9 N22          7.6300    -0.0060    -0.3550 nz         1 CKR       0.173400
     10 N9           5.4020    -0.0040    -0.9430 nd         1 CKR      -0.349100
     11 C10          4.0750    -0.0030    -0.6590 ca         1 CKR       0.038400
     12 C11          3.1190    -0.0040    -1.6730 ca         1 CKR       0.023000
     13 C12          1.7750    -0.0020    -1.3480 ca         1 CKR      -0.299200
     14 N13          0.6150    -0.0030    -2.1040 na         1 CKR       0.222700
     15 C1          -0.4380    -0.0010    -1.2330 cd         1 CKR       0.383700
     16 N14         -1.7680    -0.0000    -1.6010 nu         1 CKR      -0.423200
     17 C2          -2.1360    -0.0030    -3.0180 c3         1 CKR       0.122800
     18 C7          -3.6600    -0.0010    -3.1490 c3         1 CKR       0.155800
     19 H4           1.8860    -0.3320     1.9610 ha         1 CKR       0.150000
     20 HN7          6.6590    -0.2430     2.0390 hn         1 CKR       0.188500
     21 HN22         8.0720     0.8280    -0.0230 hn         1 CKR       0.228133
     22 HN2A         7.4240     0.0370    -1.3340 hn         1 CKR       0.228133
     23 H11          3.1620     0.2330    -2.7290 ha         1 CKR       0.119000
     24 HN13         0.5590    -0.0040    -3.1040 hn         1 CKR       0.145700
     25 HN14        -2.4720     0.2110    -0.9220 hn         1 CKR       0.322800
     26 H2          -1.7010     0.8420    -3.5390 h1         1 CKR       0.025200
     27 H2A         -1.7630    -0.9180    -3.4610 h1         1 CKR       0.025200
     28 H7          -4.0760     0.8860    -2.6880 h1         1 CKR       0.022200
     29 H7A         -4.0340    -0.8860    -2.6490 h1         1 CKR       0.022200
     30 N71         -4.0290    -0.0030    -4.5710 n3         1 CKR      -0.537600
     31 C121        -5.4710    -0.2410    -4.7410 c3         1 CKR       0.103300
     32 C13         -5.8210    -0.1760    -6.2300 c3         1 CKR       0.217400
     33 O2          -5.0280    -1.1280    -6.9430 os         1 CKR      -0.396600
     34 C14         -3.6190    -0.9260    -6.8010 c3         1 CKR       0.217400
     35 C15         -3.2460    -0.9990    -5.3170 c3         1 CKR       0.103300
     36 H13         -5.7300    -1.2290    -4.3800 h1         1 CKR       0.019450
     37 H14         -6.0030     0.5210    -4.1840 h1         1 CKR       0.019450
     38 H15         -5.6630     0.8320    -6.5940 h1         1 CKR       0.016950
     39 H16         -6.8860    -0.3690    -6.2820 h1         1 CKR       0.016950
     40 H17         -3.3610     0.0520    -7.1890 h1         1 CKR       0.016950
     41 H18         -3.0970    -1.7010    -7.3480 h1         1 CKR       0.016950
     42 H19         -3.4780    -1.9830    -4.9280 h1         1 CKR       0.019450
     43 H20         -2.1900    -0.7880    -5.2010 h1         1 CKR       0.019450
     44 H223         8.1110    -0.8200    -0.0270 hn         1 CKR       0.228133
@<TRIPOS>BOND
     1     1     2 1   
     2     1    15 2   
     3     2     3 ar  
     4     2    13 ar  
     5     3     4 ar  
     6     3    19 1   
     7     4     5 1   
     8     4    11 ar  
     9     5     6 2   
    10     5     7 1   
    11     7     8 1   
    12     7    20 1   
    13     8     9 1   
    14     8    10 2   
    15     9    21 1   
    16     9    22 1   
    17     9    44 1   
    18    10    11 1   
    19    11    12 ar  
    20    12    13 ar  
    21    12    23 1   
    22    13    14 1   
    23    14    15 1   
    24    14    24 1   
    25    15    16 1   
    26    16    17 1   
    27    16    25 1   
    28    17    18 1   
    29    17    26 1   
    30    17    27 1   
    31    18    28 1   
    32    18    29 1   
    33    18    30 1   
    34    30    31 1   
    35    30    35 1   
    36    31    32 1   
    37    31    36 1   
    38    31    37 1   
    39    32    33 1   
    40    32    38 1   
    41    32    39 1   
    42    33    34 1   
    43    34    35 1   
    44    34    40 1   
    45    34    41 1   
    46    35    42 1   
    47    35    43 1   
@<TRIPOS>SUBSTRUCTURE
     1 CKR         1 TEMP              0 ****  ****    0 ROOT
