@<TRIPOS>MOLECULE
molecule
   78    82     1     0     0
SMALL
bcc


@<TRIPOS>ATOM
      1 C2           0.0000     0.0000     0.0000 c3         1 CKS       0.249500
      2 C7          -3.7110     0.8000    -0.7370 ca         1 CKS      -0.032500
      3 C9          -5.6410     0.2260     0.5580 ca         1 CKS      -0.075000
      4 C10         -5.0960     0.8670     1.6550 ca         1 CKS      -0.153000
      5 C11         -3.8550     1.4680     1.5580 ca         1 CKS      -0.032500
      6 C12         -0.1890    -1.0980    -2.2360 c3         1 CKS      -0.030100
      7 C13         -0.5780    -0.8890    -3.6760 ca         1 CKS      -0.160300
      8 C15         -2.1630    -1.1450    -5.4660 ca         1 CKS      -0.155000
      9 C18          0.2920    -0.2540    -4.5440 ca         1 CKS       0.159900
     10 C20         -3.6550    -2.7890    -3.7550 c          1 CKS       0.657100
     11 C22         -4.6920    -3.3710    -2.8300 c3         1 CKS      -0.151400
     12 C8          -4.9480     0.1920    -0.6380 ca         1 CKS      -0.153000
     13 C16         -1.2920    -0.5040    -6.3260 ca         1 CKS      -0.085000
     14 C26         -5.0360    -5.7220    -5.5470 ca         1 CKS      -0.093750
     15 C30         -4.1460    -6.2100    -3.3790 ca         1 CKS      -0.093750
     16 C31         -8.0910    -4.4890    -3.0760 ca         1 CKS      -0.093750
     17 C35         -6.4680    -5.3890    -1.5630 ca         1 CKS      -0.093750
     18 C17         -0.0650    -0.0610    -5.8680 ca         1 CKS      -0.183000
     19 C27         -4.3570    -6.8050    -6.0710 ca         1 CKS      -0.163500
     20 C29         -3.4620    -7.2910    -3.9010 ca         1 CKS      -0.163500
     21 C32         -9.1070    -4.9350    -2.2530 ca         1 CKS      -0.163500
     22 C34         -7.4830    -5.8410    -0.7410 ca         1 CKS      -0.163500
     23 C25         -4.9280    -5.4220    -4.2020 ca         1 CKS      -0.091800
     24 C24         -6.7710    -4.7190    -2.7320 ca         1 CKS      -0.091800
     25 C14         -1.8080    -1.3390    -4.1370 ca         1 CKS       0.084600
     26 C28         -3.5700    -7.5920    -5.2480 ca         1 CKS       0.134900
     27 C33         -8.8040    -5.6110    -1.0830 ca         1 CKS       0.134900
     28 C6          -3.1620     1.4350     0.3620 ca         1 CKS      -0.311500
     29 C38          0.0820     1.2710     2.1790 c3         1 CKS       0.240800
     30 C1           1.5330     0.0000     0.0000 c3         1 CKS       0.150800
     31 C            1.6110     1.2210     2.0940 c3         1 CKS       0.152500
     32 C39          2.2020     1.2160     3.5050 c3         1 CKS      -0.091100
     33 C4          -0.5140     0.1630    -1.4320 c3         1 CKS      -0.116400
     34 C23         -5.6640    -4.2370    -3.6340 c3         1 CKS       0.043900
     35 N3          -0.4670     1.1270     0.8230 n3         1 CKS      -0.818500
     36 N            2.0190     0.0000     1.3860 n7         1 CKS      -0.819200
     37 O21         -3.6890    -3.0420    -4.9410 o          1 CKS      -0.583100
     38 F37         -2.9060    -8.6520    -5.7590 f          1 CKS      -0.140900
     39 F36         -9.7980    -6.0470    -0.2770 f          1 CKS      -0.140900
     40 F            1.4920     0.1810    -4.0990 f          1 CKS      -0.140900
     41 S           -1.5810     2.2030     0.2370 sy         1 CKS       1.428200
     42 H1          -0.3630    -0.9310     0.4190 h1         1 CKS       0.055700
     43 H2          -3.1680     0.7740    -1.6740 ha         1 CKS       0.152500
     44 H3          -6.6120    -0.2480     0.6350 ha         1 CKS       0.135000
     45 H4          -5.6390     0.8930     2.5920 ha         1 CKS       0.135500
     46 H5          -3.4270     1.9680     2.4180 ha         1 CKS       0.152500
     47 H6           0.8730    -1.3020    -2.1740 hc         1 CKS       0.050200
     48 H7          -0.7420    -1.9370    -1.8300 hc         1 CKS       0.050200
     49 H8          -3.1230    -1.4930    -5.8270 ha         1 CKS       0.177000
     50 H9          -2.5740    -1.8900    -2.2740 hn         1 CKS       0.328500
     51 H10         -4.2050    -3.9790    -2.0770 hc         1 CKS       0.067200
     52 H11         -5.2380    -2.5680    -2.3490 hc         1 CKS       0.067200
     53 H12         -5.3770    -0.3080    -1.4980 ha         1 CKS       0.135500
     54 H13         -1.5690    -0.3530    -7.3620 ha         1 CKS       0.140000
     55 H15         -4.0620    -5.9740    -2.3250 ha         1 CKS       0.136250
     56 H16         -8.3280    -3.9610    -3.9920 ha         1 CKS       0.136250
     57 H17         -5.4340    -5.5690    -1.2950 ha         1 CKS       0.136250
     58 H18          0.6170     0.4390    -6.5450 ha         1 CKS       0.145000
     59 H19         -4.4420    -7.0400    -7.1260 ha         1 CKS       0.146250
     60 H20         -2.8470    -7.9060    -3.2550 ha         1 CKS       0.146250
     61 H21        -10.1410    -4.7540    -2.5220 ha         1 CKS       0.146250
     62 H22         -7.2440    -6.3680     0.1750 ha         1 CKS       0.146250
     63 H23         -0.2270     2.2220     2.5970 h1         1 CKS       0.063700
     64 H24         -0.2740     0.4610     2.8030 h1         1 CKS       0.063700
     65 H25          1.8930     0.8860    -0.5080 h1         1 CKS       0.045700
     66 H26          1.8930    -0.8860    -0.5080 h1         1 CKS       0.045700
     67 H27          1.9690     2.0870     1.5520 h1         1 CKS       0.032700
     68 H28          1.8160     2.0620     4.0610 hc         1 CKS       0.043033
     69 H29          1.9260     0.2970     4.0090 hc         1 CKS       0.043033
     70 H30          3.2810     1.2850     3.4450 hc         1 CKS       0.043033
     71 H31         -1.5860     0.3150    -1.4160 hc         1 CKS       0.078200
     72 H32         -0.0340     1.0180    -1.8930 hc         1 CKS       0.078200
     73 H33         -6.0860    -3.6520    -4.4420 hc         1 CKS       0.079700
     74 H34          3.0170    -0.0700     1.3890 hn         1 CKS       0.359800
     75 N19         -2.6880    -1.9880    -3.2640 ns         1 CKS      -0.473100
     76 O           -1.3110     2.3430    -1.1500 o          1 CKS      -0.637300
     77 O5          -1.5950     3.2980     1.1420 o          1 CKS      -0.637300
     78 H14         -5.6510    -5.1050    -6.1920 ha         1 CKS       0.136250
@<TRIPOS>BOND
     1    39    27 1
     2    27    21 ar
     3    27    22 ar
     4    21    16 ar
     5    22    17 ar
     6    16    24 ar
     7    17    24 ar
     8    38    26 1
     9    19    26 ar
    10    19    14 ar
    11    24    34 1
    12    26    20 ar
    13    14    23 ar
    14    20    15 ar
    15     4     3 ar
    16     4     5 ar
    17    23    15 ar
    18    23    34 1
    19     3    12 ar
    20    34    11 1
    21     5    28 ar
    22    11    10 1
    23    12     2 ar
    24    76    41 2
    25    28     2 ar
    26    28    41 1
    27    10    75 1
    28    10    37 2
    29    41    77 2
    30    41    35 1
    31    30     1 1
    32    30    36 1
    33     1    35 1
    34     1    33 1
    35    75    25 1
    36    32    31 1
    37    35    29 1
    38     6    33 1
    39     6     7 1
    40    36    31 1
    41    31    29 1
    42    25     7 ar
    43    25     8 ar
    44     7     9 ar
    45     8    13 ar
    46     9    40 1
    47     9    18 ar
    48    13    18 ar
    49     1    42 1
    50     2    43 1
    51     3    44 1
    52     4    45 1
    53     5    46 1
    54     6    47 1
    55     6    48 1
    56     8    49 1
    57    75    50 1
    58    11    51 1
    59    11    52 1
    60    12    53 1
    61    13    54 1
    62    14    78 1
    63    15    55 1
    64    16    56 1
    65    17    57 1
    66    18    58 1
    67    19    59 1
    68    20    60 1
    69    21    61 1
    70    22    62 1
    71    29    63 1
    72    29    64 1
    73    30    65 1
    74    30    66 1
    75    31    67 1
    76    32    68 1
    77    32    69 1
    78    32    70 1
    79    33    71 1
    80    33    72 1
    81    34    73 1
    82    36    74 1
@<TRIPOS>SUBSTRUCTURE
     1 CKS         1 TEMP              0 ****  ****    0 ROOT
