@<TRIPOS>MOLECULE
CKS
   78    82     1     0     0
SMALL
bcc


@<TRIPOS>ATOM
      1 C2           0.0000     0.0000     0.0000 c3         1 CKS       0.224500
      2 C7          -3.7110     0.8000    -0.7370 ca         1 CKS      -0.003500
      3 C9          -5.6410     0.2260     0.5580 ca         1 CKS      -0.045000
      4 C10         -5.0960     0.8670     1.6550 ca         1 CKS      -0.134000
      5 C11         -3.8550     1.4680     1.5580 ca         1 CKS      -0.003500
      6 C12         -0.1890    -1.0980    -2.2360 c3         1 CKS       0.034900
      7 C13         -0.5780    -0.8890    -3.6760 ca         1 CKS      -0.153300
      8 C15         -2.1630    -1.1450    -5.4660 ca         1 CKS      -0.138000
      9 C18          0.2920    -0.2540    -4.5440 ca         1 CKS       0.134900
     10 C20         -3.6550    -2.7890    -3.7550 c          1 CKS       0.559100
     11 C22         -4.6920    -3.3710    -2.8300 c3         1 CKS      -0.107400
     12 C8          -4.9480     0.1920    -0.6380 ca         1 CKS      -0.134000
     13 C16         -1.2920    -0.5040    -6.3260 ca         1 CKS      -0.054000
     14 C26         -5.0360    -5.7220    -5.5470 ca         1 CKS      -0.072000
     15 C30         -4.1460    -6.2100    -3.3790 ca         1 CKS      -0.072000
     16 C31         -8.0910    -4.4890    -3.0760 ca         1 CKS      -0.072000
     17 C35         -6.4680    -5.3890    -1.5630 ca         1 CKS      -0.072000
     18 C17         -0.0650    -0.0610    -5.8680 ca         1 CKS      -0.146000
     19 C27         -4.3570    -6.8050    -6.0710 ca         1 CKS      -0.127750
     20 C29         -3.4620    -7.2910    -3.9010 ca         1 CKS      -0.127750
     21 C32         -9.1070    -4.9350    -2.2530 ca         1 CKS      -0.127750
     22 C34         -7.4830    -5.8410    -0.7410 ca         1 CKS      -0.127750
     23 C25         -4.9280    -5.4220    -4.2020 ca         1 CKS      -0.095800
     24 C24         -6.7710    -4.7190    -2.7320 ca         1 CKS      -0.095800
     25 C14         -1.8080    -1.3390    -4.1370 ca         1 CKS      -0.060400
     26 C28         -3.5700    -7.5920    -5.2480 ca         1 CKS       0.104900
     27 C33         -8.8040    -5.6110    -1.0830 ca         1 CKS       0.104900
     28 C6          -3.1620     1.4350     0.3620 ca         1 CKS      -0.155500
     29 C38          0.0820     1.2710     2.1790 c3         1 CKS       0.233800
     30 C1           1.5330     0.0000     0.0000 c3         1 CKS       0.125800
     31 C            1.6110     1.2210     2.0940 c3         1 CKS       0.100500
     32 C39          2.2020     1.2160     3.5050 c3         1 CKS       0.008900
     33 C4          -0.5140     0.1630    -1.4320 c3         1 CKS      -0.107400
     34 C23         -5.6640    -4.2370    -3.6340 c3         1 CKS       0.086900
     35 N3          -0.4670     1.1270     0.8230 n3         1 CKS      -0.529500
     36 N            2.0190     0.0000     1.3860 n7         1 CKS      -0.581200
     37 O21         -3.6890    -3.0420    -4.9410 o          1 CKS      -0.623100
     38 F37         -2.9060    -8.6520    -5.7590 f          1 CKS      -0.128900
     39 F36         -9.7980    -6.0470    -0.2770 f          1 CKS      -0.128900
     40 F            1.4920     0.1810    -4.0990 f          1 CKS      -0.128900
     41 S           -1.5810     2.2030     0.2370 sy         1 CKS       1.055200
     42 H1          -0.3630    -0.9310     0.4190 h1         1 CKS       0.022700
     43 H2          -3.1680     0.7740    -1.6740 ha         1 CKS       0.127000
     44 H3          -6.6120    -0.2480     0.6350 ha         1 CKS       0.104000
     45 H4          -5.6390     0.8930     2.5920 ha         1 CKS       0.108500
     46 H5          -3.4270     1.9680     2.4180 ha         1 CKS       0.127000
     47 H6           0.8730    -1.3020    -2.1740 hc         1 CKS       0.021200
     48 H7          -0.7420    -1.9370    -1.8300 hc         1 CKS       0.021200
     49 H8          -3.1230    -1.4930    -5.8270 ha         1 CKS       0.161000
     50 H9          -2.5740    -1.8900    -2.2740 hn         1 CKS       0.177500
     51 H10         -4.2050    -3.9790    -2.0770 hc         1 CKS       0.037200
     52 H11         -5.2380    -2.5680    -2.3490 hc         1 CKS       0.037200
     53 H12         -5.3770    -0.3080    -1.4980 ha         1 CKS       0.108500
     54 H13         -1.5690    -0.3530    -7.3620 ha         1 CKS       0.107000
     55 H15         -4.0620    -5.9740    -2.3250 ha         1 CKS       0.112250
     56 H16         -8.3280    -3.9610    -3.9920 ha         1 CKS       0.112250
     57 H17         -5.4340    -5.5690    -1.2950 ha         1 CKS       0.112250
     58 H18          0.6170     0.4390    -6.5450 ha         1 CKS       0.119000
     59 H19         -4.4420    -7.0400    -7.1260 ha         1 CKS       0.119000
     60 H20         -2.8470    -7.9060    -3.2550 ha         1 CKS       0.119000
     61 H21        -10.1410    -4.7540    -2.5220 ha         1 CKS       0.119000
     62 H22         -7.2440    -6.3680     0.1750 ha         1 CKS       0.119000
     63 H23         -0.2270     2.2220     2.5970 h1         1 CKS       0.032200
     64 H24         -0.2740     0.4610     2.8030 h1         1 CKS       0.032200
     65 H25          1.8930     0.8860    -0.5080 h1         1 CKS       0.021200
     66 H26          1.8930    -0.8860    -0.5080 h1         1 CKS       0.021200
     67 H27          1.9690     2.0870     1.5520 h1         1 CKS       0.014700
     68 H28          1.8160     2.0620     4.0610 hc         1 CKS       0.008033
     69 H29          1.9260     0.2970     4.0090 hc         1 CKS       0.008033
     70 H30          3.2810     1.2850     3.4450 hc         1 CKS       0.008033
     71 H31         -1.5860     0.3150    -1.4160 hc         1 CKS       0.067700
     72 H32         -0.0340     1.0180    -1.8930 hc         1 CKS       0.067700
     73 H33         -6.0860    -3.6520    -4.4420 hc         1 CKS       0.051700
     74 H34          3.0170    -0.0700     1.3890 hn         1 CKS       0.257800
     75 N19         -2.6880    -1.9880    -3.2640 ns         1 CKS      -0.036100
     76 O           -1.3110     2.3430    -1.1500 o          1 CKS      -0.588800
     77 O5          -1.5950     3.2980     1.1420 o          1 CKS      -0.588800
     78 H14         -5.6510    -5.1050    -6.1920 ha         1 CKS       0.112250
@<TRIPOS>BOND
     1     1    30 1   
     2     1    33 1   
     3     1    35 1   
     4     1    42 1   
     5     2    12 ar  
     6     2    28 ar  
     7     2    43 1   
     8     3     4 ar  
     9     3    12 ar  
    10     3    44 1   
    11     4     5 ar  
    12     4    45 1   
    13     5    28 ar  
    14     5    46 1   
    15     6     7 1   
    16     6    33 1   
    17     6    47 1   
    18     6    48 1   
    19     7     9 ar  
    20     7    25 ar  
    21     8    13 ar  
    22     8    25 ar  
    23     8    49 1   
    24     9    18 ar  
    25     9    40 1   
    26    10    11 1   
    27    10    37 2   
    28    10    75 1   
    29    11    34 1   
    30    11    51 1   
    31    11    52 1   
    32    12    53 1   
    33    13    18 ar  
    34    13    54 1   
    35    14    19 ar  
    36    14    23 ar  
    37    14    78 1   
    38    15    20 ar  
    39    15    23 ar  
    40    15    55 1   
    41    16    21 ar  
    42    16    24 ar  
    43    16    56 1   
    44    17    22 ar  
    45    17    24 ar  
    46    17    57 1   
    47    18    58 1   
    48    19    26 ar  
    49    19    59 1   
    50    20    26 ar  
    51    20    60 1   
    52    21    27 ar  
    53    21    61 1   
    54    22    27 ar  
    55    22    62 1   
    56    23    34 1   
    57    24    34 1   
    58    25    75 1   
    59    26    38 1   
    60    27    39 1   
    61    28    41 1   
    62    29    31 1   
    63    29    35 1   
    64    29    63 1   
    65    29    64 1   
    66    30    36 1   
    67    30    65 1   
    68    30    66 1   
    69    31    32 1   
    70    31    36 1   
    71    31    67 1   
    72    32    68 1   
    73    32    69 1   
    74    32    70 1   
    75    33    71 1   
    76    33    72 1   
    77    34    73 1   
    78    35    41 1   
    79    36    74 1   
    80    41    76 2   
    81    41    77 2   
    82    50    75 1   
@<TRIPOS>SUBSTRUCTURE
     1 CKS         1 TEMP              0 ****  ****    0 ROOT
