@<TRIPOS>MOLECULE
CKV
   78    82     1     0     0
SMALL
bcc


@<TRIPOS>ATOM
      1 C2           0.0000     0.0000     0.0000 c3         1 CKV       0.225500
      2 C7          -3.8570     1.4930     1.5660 ca         1 CKV      -0.003500
      3 C9          -5.6520     0.2530     0.5780 ca         1 CKV      -0.045000
      4 C10         -4.9570     0.2000    -0.6150 ca         1 CKV      -0.134000
      5 C11         -3.7110     0.7880    -0.7180 ca         1 CKV      -0.003500
      6 C12         -0.1500    -1.0780    -2.2480 c3         1 CKV       0.033900
      7 C13         -0.5540    -0.8720    -3.6860 ca         1 CKV      -0.153300
      8 C15         -2.1610    -1.1250    -5.4550 ca         1 CKV      -0.142000
      9 C18          0.3080    -0.2430    -4.5640 ca         1 CKV       0.134900
     10 C20         -3.6630    -2.7280    -3.7220 c          1 CKV       0.559100
     11 C22         -4.6950    -3.2950    -2.7820 c3         1 CKV      -0.107400
     12 C8          -5.1020     0.9010     1.6690 ca         1 CKV      -0.134000
     13 C16         -1.2980    -0.4900    -6.3270 ca         1 CKV      -0.053000
     14 C26         -5.1310    -5.5760    -5.5280 ca         1 CKV      -0.071500
     15 C30         -4.2710    -6.1630    -3.3710 ca         1 CKV      -0.071500
     16 C31         -6.4930    -5.2460    -1.4780 ca         1 CKV      -0.071500
     17 C35         -8.1290    -4.3530    -2.9830 ca         1 CKV      -0.071500
     18 C17         -0.0640    -0.0520    -5.8850 ca         1 CKV      -0.146000
     19 C27         -4.4920    -6.6700    -6.0810 ca         1 CKV      -0.128500
     20 C29         -3.6270    -7.2540    -3.9220 ca         1 CKV      -0.128500
     21 C32         -7.5000    -5.6670    -0.6310 ca         1 CKV      -0.128500
     22 C34         -9.1380    -4.7780    -2.1390 ca         1 CKV      -0.128500
     23 C25         -5.0180    -5.3210    -4.1740 ca         1 CKV      -0.095800
     24 C24         -6.8060    -4.5870    -2.6530 ca         1 CKV      -0.095800
     25 C14         -1.7920    -1.3170    -4.1300 ca         1 CKV      -0.060400
     26 C28         -3.7400    -7.5100    -5.2780 ca         1 CKV       0.104900
     27 C33         -8.8240    -5.4330    -0.9600 ca         1 CKV       0.104900
     28 C6          -3.1630     1.4400     0.3720 ca         1 CKV      -0.155500
     29 C38          0.0830     1.2720     2.1790 c3         1 CKV       0.235800
     30 C1           1.5330     0.0000     0.0000 c3         1 CKV       0.113800
     31 C            1.6120     1.2210     2.0930 c3         1 CKV       0.104500
     32 C39          2.1210     2.4460     1.3320 c3         1 CKV      -0.038100
     33 C4          -0.5140     0.1630    -1.4320 c3         1 CKV      -0.109400
     34 C23         -5.7080    -4.1240    -3.5740 c3         1 CKV       0.086900
     35 N3          -0.4660     1.1260     0.8230 n3         1 CKV      -0.526500
     36 N            2.0190     0.0000     1.3860 n7         1 CKV      -0.579200
     37 O21         -3.7320    -2.9650    -4.9110 o          1 CKV      -0.624100
     38 F37         -3.1120    -8.5780    -5.8190 f          1 CKV      -0.128900
     39 F36         -9.8090    -5.8500    -0.1350 f          1 CKV      -0.128900
     40 F            1.5150     0.1870    -4.1340 f          1 CKV      -0.128900
     41 S           -1.5810     2.2030     0.2380 sy         1 CKV       1.052200
     42 H1          -0.3630    -0.9310     0.4200 h1         1 CKV       0.022700
     43 H2          -3.4270     2.0020     2.4200 ha         1 CKV       0.127000
     44 H3          -6.6280    -0.2100     0.6580 ha         1 CKV       0.104000
     45 H4          -5.3880    -0.3090    -1.4690 ha         1 CKV       0.108500
     46 H5          -3.1680     0.7460    -1.6540 ha         1 CKV       0.127000
     47 H6           0.9190    -1.2450    -2.1950 hc         1 CKV       0.021700
     48 H7          -0.6700    -1.9400    -1.8470 hc         1 CKV       0.021700
     49 H8          -3.1270    -1.4700    -5.8040 ha         1 CKV       0.165000
     50 H9          -2.5240    -1.8780    -2.2570 hn         1 CKV       0.177500
     51 H10         -4.2070    -3.9260    -2.0490 hc         1 CKV       0.036700
     52 H11         -5.2070    -2.4850    -2.2770 hc         1 CKV       0.036700
     53 H12         -5.6460     0.9430     2.6050 ha         1 CKV       0.108500
     54 H13         -1.5870    -0.3400    -7.3600 ha         1 CKV       0.107000
     55 H15         -4.1830    -5.9620    -2.3100 ha         1 CKV       0.112750
     56 H16         -5.4570    -5.4290    -1.2210 ha         1 CKV       0.112750
     57 H17         -8.3750    -3.8390    -3.9040 ha         1 CKV       0.112750
     58 H18          0.6120     0.4440    -6.5720 ha         1 CKV       0.119000
     59 H19         -4.5800    -6.8690    -7.1420 ha         1 CKV       0.119000
     60 H20         -3.0410    -7.9130    -3.2930 ha         1 CKV       0.119000
     61 H21         -7.2530    -6.1810     0.2900 ha         1 CKV       0.119000
     62 H22        -10.1730    -4.5950    -2.3980 ha         1 CKV       0.119000
     63 H23         -0.2730     0.4610     2.8040 h1         1 CKV       0.031700
     64 H24         -0.2260     2.2230     2.5960 h1         1 CKV       0.031700
     65 H25          1.8930    -0.8860    -0.5080 h1         1 CKV       0.025200
     66 H26          1.8930     0.8860    -0.5080 h1         1 CKV       0.025200
     67 H27          2.0290     1.2130     3.0930 h1         1 CKV       0.036700
     68 H28          3.1240     2.2550     0.9690 hc         1 CKV       0.014367
     69 H29          1.4660     2.6470     0.4930 hc         1 CKV       0.014367
     70 H30          2.1340     3.3030     1.9940 hc         1 CKV       0.014367
     71 H31         -1.5910     0.2820    -1.4180 hc         1 CKV       0.068200
     72 H32         -0.0590     1.0370    -1.8820 hc         1 CKV       0.068200
     73 H33         -6.1320    -3.5170    -4.3650 hc         1 CKV       0.051700
     74 H34          3.0180    -0.0710     1.3890 hn         1 CKV       0.257800
     75 N19         -2.6650    -1.9590    -3.2450 ns         1 CKV      -0.032100
     76 O           -1.3170     2.3380    -1.1520 o          1 CKV      -0.588800
     77 O5          -1.5880     3.3020     1.1380 o          1 CKV      -0.588800
     78 H14         -5.7180    -4.9170    -6.1560 ha         1 CKV       0.112750
@<TRIPOS>BOND
     1     1    30 1   
     2     1    33 1   
     3     1    35 1   
     4     1    42 1   
     5     2    12 ar  
     6     2    28 ar  
     7     2    43 1   
     8     3     4 ar  
     9     3    12 ar  
    10     3    44 1   
    11     4     5 ar  
    12     4    45 1   
    13     5    28 ar  
    14     5    46 1   
    15     6     7 1   
    16     6    33 1   
    17     6    47 1   
    18     6    48 1   
    19     7     9 ar  
    20     7    25 ar  
    21     8    13 ar  
    22     8    25 ar  
    23     8    49 1   
    24     9    18 ar  
    25     9    40 1   
    26    10    11 1   
    27    10    37 2   
    28    10    75 1   
    29    11    34 1   
    30    11    51 1   
    31    11    52 1   
    32    12    53 1   
    33    13    18 ar  
    34    13    54 1   
    35    14    19 ar  
    36    14    23 ar  
    37    14    78 1   
    38    15    20 ar  
    39    15    23 ar  
    40    15    55 1   
    41    16    21 ar  
    42    16    24 ar  
    43    16    56 1   
    44    17    22 ar  
    45    17    24 ar  
    46    17    57 1   
    47    18    58 1   
    48    19    26 ar  
    49    19    59 1   
    50    20    26 ar  
    51    20    60 1   
    52    21    27 ar  
    53    21    61 1   
    54    22    27 ar  
    55    22    62 1   
    56    23    34 1   
    57    24    34 1   
    58    25    75 1   
    59    26    38 1   
    60    27    39 1   
    61    28    41 1   
    62    29    31 1   
    63    29    35 1   
    64    29    63 1   
    65    29    64 1   
    66    30    36 1   
    67    30    65 1   
    68    30    66 1   
    69    31    32 1   
    70    31    36 1   
    71    31    67 1   
    72    32    68 1   
    73    32    69 1   
    74    32    70 1   
    75    33    71 1   
    76    33    72 1   
    77    34    73 1   
    78    35    41 1   
    79    36    74 1   
    80    41    76 2   
    81    41    77 2   
    82    50    75 1   
@<TRIPOS>SUBSTRUCTURE
     1 CKV         1 TEMP              0 ****  ****    0 ROOT
