@<TRIPOS>MOLECULE
molecule
   49    52     1     0     0
SMALL
bcc


@<TRIPOS>ATOM
      1 O5'          0.0000     0.0000     0.0000 os         1 CKW      -0.382600
      2 C5'          1.4290     0.0000     0.0000 c3         1 CKW       0.142100
      3 C4'          1.9380     0.0000     1.4430 c3         1 CKW       0.103100
      4 C3'          1.3740     1.2210     2.1770 c3         1 CKW       0.118100
      5 C2'         -0.1560     1.1860     2.0990 c3         1 CKW       0.111100
      6 C1'         -0.5840     1.1410     0.6310 c3         1 CKW       0.131800
      7 C1          -2.0860     1.0490     0.5480 cc         1 CKW       0.374800
      8 O2'         -0.6910     2.3590     2.7170 oh         1 CKW      -0.604800
      9 O3'          1.7850     1.1880     3.5450 oh         1 CKW      -0.600800
     10 O4'          3.3650     0.0570     1.4470 oh         1 CKW      -0.602800
     11 C6'          1.9400    -1.2480    -0.7220 c3         1 CKW       0.152400
     12 O6'          1.5610    -1.1910    -2.0990 oh         1 CKW      -0.600800
     13 N5          -2.9090     1.8900    -0.1360 na         1 CKW      -0.420700
     14 C4          -4.1780     1.4220     0.0720 cc         1 CKW       0.426000
     15 N3          -4.0730     0.3600     0.8410 nd         1 CKW      -0.349000
     16 N2          -2.8360     0.1420     1.1150 nd         1 CKW      -0.338000
     17 C6          -5.4270     1.9990    -0.4660 ca         1 CKW      -0.119500
     18 C7          -6.6570     1.4070    -0.1650 ca         1 CKW      -0.100500
     19 C8          -7.8200     1.9450    -0.6670 ca         1 CKW      -0.122000
     20 C9          -7.7720     3.0820    -1.4740 cp         1 CKW      -0.020000
     21 C10         -6.5450     3.6730    -1.7750 ca         1 CKW      -0.122000
     22 C11         -5.3810     3.1400    -1.2700 ca         1 CKW      -0.100500
     23 C12         -9.0260     3.6610    -2.0140 cp         1 CKW      -0.041000
     24 C13         -8.9820     4.7970    -2.8200 ca         1 CKW      -0.116000
     25 C14        -10.1520     5.3310    -3.3200 ca         1 CKW      -0.126500
     26 C15        -11.3680     4.7430    -3.0210 ca         1 CKW      -0.123000
     27 C16        -11.4180     3.6160    -2.2200 ca         1 CKW      -0.126500
     28 C17        -10.2540     3.0690    -1.7200 ca         1 CKW      -0.116000
     29 H1           1.7880     0.8880    -0.5070 h1         1 CKW       0.060700
     30 H2           1.6070    -0.9030     1.9410 h1         1 CKW       0.061700
     31 H3           1.7380     2.1250     1.7050 h1         1 CKW       0.056700
     32 H4          -0.5230     0.3030     2.6090 h1         1 CKW       0.080700
     33 H5          -0.2450     2.0410     0.1310 h1         1 CKW       0.051700
     34 H6          -1.1530     2.1180     3.5030 ho         1 CKW       0.421000
     35 H7           2.2840     1.9640     3.7410 ho         1 CKW       0.415000
     36 H8           3.7050    -0.6070     2.0230 ho         1 CKW       0.414000
     37 H9           3.0190    -1.2930    -0.6460 h1         1 CKW       0.038200
     38 H10          1.5090    -2.1310    -0.2660 h1         1 CKW       0.038200
     39 H11          2.0030    -1.8730    -2.5760 ho         1 CKW       0.404000
     40 H12         -2.6410     2.6870    -0.6790 hn         1 CKW       0.311700
     41 H13         -6.6940     0.5240     0.4620 ha         1 CKW       0.140500
     42 H14         -8.7740     1.4870    -0.4340 ha         1 CKW       0.139000
     43 H15         -6.5090     4.5570    -2.4000 ha         1 CKW       0.139000
     44 H16         -4.4280     3.6000    -1.5030 ha         1 CKW       0.140500
     45 H17         -8.0300     5.2590    -3.0550 ha         1 CKW       0.133000
     46 H18        -10.1180     6.2140    -3.9470 ha         1 CKW       0.131500
     47 H19        -12.2840     5.1670    -3.4140 ha         1 CKW       0.131000
     48 H20        -12.3720     3.1580    -1.9900 ha         1 CKW       0.131500
     49 H21        -10.2950     2.1870    -1.0920 ha         1 CKW       0.133000
@<TRIPOS>BOND
     1     9     4 1
     2    10     3 1
     3     4     3 1
     4     4     5 1
     5     3     2 1
     6     8     5 1
     7     5     6 1
     8    12    11 1
     9     2    11 1
    10     2     1 1
    11     6     1 1
    12     6     7 1
    13    16     7 2
    14    16    15 1
    15     7    13 1
    16    15    14 2
    17    13    14 1
    18    14    17 1
    19    17    18 ar
    20    17    22 ar
    21    18    19 ar
    22    22    21 ar
    23    19    20 ar
    24    21    20 ar
    25    20    23 1
    26    23    24 ar
    27    23    28 ar
    28    24    25 ar
    29    28    27 ar
    30    25    26 ar
    31    27    26 ar
    32     2    29 1
    33     3    30 1
    34     4    31 1
    35     5    32 1
    36     6    33 1
    37     8    34 1
    38     9    35 1
    39    10    36 1
    40    11    37 1
    41    11    38 1
    42    12    39 1
    43    13    40 1
    44    18    41 1
    45    19    42 1
    46    21    43 1
    47    22    44 1
    48    24    45 1
    49    25    46 1
    50    26    47 1
    51    27    48 1
    52    28    49 1
@<TRIPOS>SUBSTRUCTURE
     1 CKW         1 TEMP              0 ****  ****    0 ROOT
