@<TRIPOS>MOLECULE
CKY
   78    82     1     0     0
SMALL
bcc


@<TRIPOS>ATOM
      1 C2           0.0000     0.0000     0.0000 c3         1 CKY       0.220500
      2 C7          -3.8580     1.4460     1.5420 ca         1 CKY      -0.004000
      3 C9          -5.6450     0.2250     0.5180 ca         1 CKY      -0.046000
      4 C10         -4.9480     0.2060    -0.6760 ca         1 CKY      -0.134000
      5 C11         -3.7040     0.8030    -0.7590 ca         1 CKY      -0.004000
      6 C12         -0.1820    -1.0950    -2.2380 c3         1 CKY       0.034900
      7 C13         -0.5830    -0.8900    -3.6770 ca         1 CKY      -0.153300
      8 C15         -2.1810    -1.1570    -5.4520 ca         1 CKY      -0.139000
      9 C18          0.2760    -0.2500    -4.5510 ca         1 CKY       0.134900
     10 C20         -3.6530    -2.8030    -3.7270 c          1 CKY       0.559100
     11 C22         -4.6800    -3.3880    -2.7930 c3         1 CKY      -0.107400
     12 C8          -5.1000     0.8450     1.6270 ca         1 CKY      -0.134000
     13 C16         -1.3220    -0.5120    -6.3210 ca         1 CKY      -0.053000
     14 C26         -5.0460    -5.7340    -5.5120 ca         1 CKY      -0.071750
     15 C30         -4.1340    -6.2260    -3.3520 ca         1 CKY      -0.071750
     16 C31         -8.0790    -4.5170    -3.0080 ca         1 CKY      -0.071750
     17 C35         -6.4380    -5.4100    -1.5090 ca         1 CKY      -0.071750
     18 C17         -0.0940    -0.0610    -5.8720 ca         1 CKY      -0.146000
     19 C27         -4.3700    -6.8150    -6.0440 ca         1 CKY      -0.127750
     20 C29         -3.4530    -7.3050    -3.8840 ca         1 CKY      -0.127750
     21 C32         -9.0860    -4.9660    -2.1750 ca         1 CKY      -0.127750
     22 C34         -7.4430    -5.8650    -0.6770 ca         1 CKY      -0.127750
     23 C25         -4.9260    -5.4380    -4.1670 ca         1 CKY      -0.095300
     24 C24         -6.7560    -4.7410    -2.6760 ca         1 CKY      -0.095300
     25 C14         -1.8140    -1.3470    -4.1260 ca         1 CKY      -0.060400
     26 C28         -3.5730    -7.6020    -5.2310 ca         1 CKY       0.104900
     27 C33         -8.7690    -5.6410    -1.0080 ca         1 CKY       0.104900
     28 C6          -3.1620     1.4280     0.3490 ca         1 CKY      -0.155500
     29 C            1.6100     1.2200     2.0940 c3         1 CKY       0.133800
     30 C1           1.5320     0.0000     0.0000 c3         1 CKY       0.123800
     31 C38          0.0800     1.2700     2.1800 c3         1 CKY       0.203500
     32 C39         -0.4220     0.1260     3.0630 c3         1 CKY      -0.022100
     33 C4          -0.5140     0.1630    -1.4320 c3         1 CKY      -0.108400
     34 C23         -5.6590    -4.2540    -3.5880 c3         1 CKY       0.086900
     35 N3          -0.4690     1.1250     0.8230 n3         1 CKY      -0.523500
     36 N            2.0180     0.0000     1.3870 n7         1 CKY      -0.579200
     37 O21         -3.6990    -3.0540    -4.9130 o          1 CKY      -0.623100
     38 F37         -2.9120    -8.6600    -5.7510 f          1 CKY      -0.128900
     39 F36         -9.7530    -6.0810    -0.1930 f          1 CKY      -0.128900
     40 F            1.4770     0.1920    -4.1160 f          1 CKY      -0.128900
     41 S           -1.5830     2.2010     0.2370 sy         1 CKY       1.054200
     42 H1          -0.3620    -0.9310     0.4190 h1         1 CKY       0.025700
     43 H2          -3.4320     1.9330     2.4110 ha         1 CKY       0.128000
     44 H3          -6.6200    -0.2440     0.5840 ha         1 CKY       0.104000
     45 H4          -5.3740    -0.2810    -1.5440 ha         1 CKY       0.108500
     46 H5          -3.1580     0.7890    -1.6950 ha         1 CKY       0.128000
     47 H6          -0.7230    -1.9390    -1.8290 hc         1 CKY       0.021200
     48 H7           0.8830    -1.2870    -2.1850 hc         1 CKY       0.021200
     49 H8          -3.1420    -1.5110    -5.8050 ha         1 CKY       0.162000
     50 H9          -2.5620    -1.9000    -2.2570 hn         1 CKY       0.177500
     51 H10         -5.2220    -2.5870    -2.3040 hc         1 CKY       0.036700
     52 H11         -4.1840    -3.9960    -2.0460 hc         1 CKY       0.036700
     53 H12         -5.6460     0.8600     2.5620 ha         1 CKY       0.108500
     54 H13         -1.6090    -0.3630    -7.3550 ha         1 CKY       0.108000
     55 H15         -4.0410    -5.9920    -2.2980 ha         1 CKY       0.112250
     56 H16         -8.3260    -3.9900    -3.9220 ha         1 CKY       0.112250
     57 H17         -5.4010    -5.5850    -1.2500 ha         1 CKY       0.112250
     58 H18          0.5800     0.4420    -6.5560 ha         1 CKY       0.119000
     59 H19         -4.4640    -7.0470    -7.0980 ha         1 CKY       0.119000
     60 H20         -2.8310    -7.9210    -3.2450 ha         1 CKY       0.119000
     61 H21        -10.1230    -4.7910    -2.4350 ha         1 CKY       0.119000
     62 H22         -7.1940    -6.3910     0.2370 ha         1 CKY       0.119000
     63 H23          2.0260     1.2130     3.0940 h1         1 CKY       0.014700
     64 H24          1.9680     2.0880     1.5530 h1         1 CKY       0.014700
     65 H25          1.8930     0.8860    -0.5080 h1         1 CKY       0.020700
     66 H26          1.8930    -0.8860    -0.5080 h1         1 CKY       0.020700
     67 H27         -0.2290     2.2210     2.5970 h1         1 CKY       0.063700
     68 H28         -1.0170    -0.5560     2.4670 hc         1 CKY       0.012367
     69 H29         -1.0280     0.5280     3.8650 hc         1 CKY       0.012367
     70 H30          0.4250    -0.4060     3.4810 hc         1 CKY       0.012367
     71 H31         -1.5870     0.3080    -1.4160 hc         1 CKY       0.067200
     72 H32         -0.0390     1.0220    -1.8900 hc         1 CKY       0.067200
     73 H33         -6.0890    -3.6690    -4.3910 hc         1 CKY       0.051700
     74 H34          3.0160    -0.0700     1.3910 hn         1 CKY       0.254800
     75 N19         -2.6840    -2.0000    -3.2450 ns         1 CKY      -0.035100
     76 O           -1.3060     2.3520    -1.1470 o          1 CKY      -0.589300
     77 O5          -1.6050     3.2910     1.1490 o          1 CKY      -0.589300
     78 H14         -5.6680    -5.1180    -6.1490 ha         1 CKY       0.112250
@<TRIPOS>BOND
     1     1    30 1   
     2     1    33 1   
     3     1    35 1   
     4     1    42 1   
     5     2    12 ar  
     6     2    28 ar  
     7     2    43 1   
     8     3     4 ar  
     9     3    12 ar  
    10     3    44 1   
    11     4     5 ar  
    12     4    45 1   
    13     5    28 ar  
    14     5    46 1   
    15     6     7 1   
    16     6    33 1   
    17     6    47 1   
    18     6    48 1   
    19     7     9 ar  
    20     7    25 ar  
    21     8    13 ar  
    22     8    25 ar  
    23     8    49 1   
    24     9    18 ar  
    25     9    40 1   
    26    10    11 1   
    27    10    37 2   
    28    10    75 1   
    29    11    34 1   
    30    11    51 1   
    31    11    52 1   
    32    12    53 1   
    33    13    18 ar  
    34    13    54 1   
    35    14    19 ar  
    36    14    23 ar  
    37    14    78 1   
    38    15    20 ar  
    39    15    23 ar  
    40    15    55 1   
    41    16    21 ar  
    42    16    24 ar  
    43    16    56 1   
    44    17    22 ar  
    45    17    24 ar  
    46    17    57 1   
    47    18    58 1   
    48    19    26 ar  
    49    19    59 1   
    50    20    26 ar  
    51    20    60 1   
    52    21    27 ar  
    53    21    61 1   
    54    22    27 ar  
    55    22    62 1   
    56    23    34 1   
    57    24    34 1   
    58    25    75 1   
    59    26    38 1   
    60    27    39 1   
    61    28    41 1   
    62    29    31 1   
    63    29    36 1   
    64    29    63 1   
    65    29    64 1   
    66    30    36 1   
    67    30    65 1   
    68    30    66 1   
    69    31    32 1   
    70    31    35 1   
    71    31    67 1   
    72    32    68 1   
    73    32    69 1   
    74    32    70 1   
    75    33    71 1   
    76    33    72 1   
    77    34    73 1   
    78    35    41 1   
    79    36    74 1   
    80    41    76 2   
    81    41    77 2   
    82    50    75 1   
@<TRIPOS>SUBSTRUCTURE
     1 CKY         1 TEMP              0 ****  ****    0 ROOT
