@<TRIPOS>MOLECULE
molecule
   78    82     1     0     0
SMALL
bcc


@<TRIPOS>ATOM
      1 C2           0.0000     0.0000     0.0000 c3         1 CKY       0.249500
      2 C7          -3.8580     1.4460     1.5420 ca         1 CKY      -0.033000
      3 C9          -5.6450     0.2250     0.5180 ca         1 CKY      -0.075000
      4 C10         -4.9480     0.2060    -0.6760 ca         1 CKY      -0.153500
      5 C11         -3.7040     0.8030    -0.7590 ca         1 CKY      -0.033000
      6 C12         -0.1820    -1.0950    -2.2380 c3         1 CKY      -0.030100
      7 C13         -0.5830    -0.8900    -3.6770 ca         1 CKY      -0.160300
      8 C15         -2.1810    -1.1570    -5.4520 ca         1 CKY      -0.156000
      9 C18          0.2760    -0.2500    -4.5510 ca         1 CKY       0.159900
     10 C20         -3.6530    -2.8030    -3.7270 c          1 CKY       0.658100
     11 C22         -4.6800    -3.3880    -2.7930 c3         1 CKY      -0.151400
     12 C8          -5.1000     0.8450     1.6270 ca         1 CKY      -0.153500
     13 C16         -1.3220    -0.5120    -6.3210 ca         1 CKY      -0.086000
     14 C26         -5.0460    -5.7340    -5.5120 ca         1 CKY      -0.093750
     15 C30         -4.1340    -6.2260    -3.3520 ca         1 CKY      -0.093750
     16 C31         -8.0790    -4.5170    -3.0080 ca         1 CKY      -0.093750
     17 C35         -6.4380    -5.4100    -1.5090 ca         1 CKY      -0.093750
     18 C17         -0.0940    -0.0610    -5.8720 ca         1 CKY      -0.183000
     19 C27         -4.3700    -6.8150    -6.0440 ca         1 CKY      -0.163750
     20 C29         -3.4530    -7.3050    -3.8840 ca         1 CKY      -0.163750
     21 C32         -9.0860    -4.9660    -2.1750 ca         1 CKY      -0.163750
     22 C34         -7.4430    -5.8650    -0.6770 ca         1 CKY      -0.163750
     23 C25         -4.9260    -5.4380    -4.1670 ca         1 CKY      -0.092300
     24 C24         -6.7560    -4.7410    -2.6760 ca         1 CKY      -0.092300
     25 C14         -1.8140    -1.3470    -4.1260 ca         1 CKY       0.084600
     26 C28         -3.5730    -7.6020    -5.2310 ca         1 CKY       0.134900
     27 C33         -8.7690    -5.6410    -1.0080 ca         1 CKY       0.134900
     28 C6          -3.1620     1.4280     0.3490 ca         1 CKY      -0.311500
     29 C            1.6100     1.2200     2.0940 c3         1 CKY       0.151800
     30 C1           1.5320     0.0000     0.0000 c3         1 CKY       0.150800
     31 C38          0.0800     1.2700     2.1800 c3         1 CKY       0.241500
     32 C39         -0.4220     0.1260     3.0630 c3         1 CKY      -0.104100
     33 C4          -0.5140     0.1630    -1.4320 c3         1 CKY      -0.117400
     34 C23         -5.6590    -4.2540    -3.5880 c3         1 CKY       0.043900
     35 N3          -0.4690     1.1250     0.8230 n3         1 CKY      -0.814500
     36 N            2.0180     0.0000     1.3870 n7         1 CKY      -0.820200
     37 O21         -3.6990    -3.0540    -4.9130 o          1 CKY      -0.583100
     38 F37         -2.9120    -8.6600    -5.7510 f          1 CKY      -0.140400
     39 F36         -9.7530    -6.0810    -0.1930 f          1 CKY      -0.140400
     40 F            1.4770     0.1920    -4.1160 f          1 CKY      -0.140900
     41 S           -1.5830     2.2010     0.2370 sy         1 CKY       1.428200
     42 H1          -0.3620    -0.9310     0.4190 h1         1 CKY       0.055700
     43 H2          -3.4320     1.9330     2.4110 ha         1 CKY       0.152500
     44 H3          -6.6200    -0.2440     0.5840 ha         1 CKY       0.135000
     45 H4          -5.3740    -0.2810    -1.5440 ha         1 CKY       0.135500
     46 H5          -3.1580     0.7890    -1.6950 ha         1 CKY       0.152500
     47 H6          -0.7230    -1.9390    -1.8290 hc         1 CKY       0.050700
     48 H7           0.8830    -1.2870    -2.1850 hc         1 CKY       0.050700
     49 H8          -3.1420    -1.5110    -5.8050 ha         1 CKY       0.178000
     50 H9          -2.5620    -1.9000    -2.2570 hn         1 CKY       0.328500
     51 H10         -5.2220    -2.5870    -2.3040 hc         1 CKY       0.067700
     52 H11         -4.1840    -3.9960    -2.0460 hc         1 CKY       0.067700
     53 H12         -5.6460     0.8600     2.5620 ha         1 CKY       0.135500
     54 H13         -1.6090    -0.3630    -7.3550 ha         1 CKY       0.141000
     55 H15         -4.0410    -5.9920    -2.2980 ha         1 CKY       0.136250
     56 H16         -8.3260    -3.9900    -3.9220 ha         1 CKY       0.136250
     57 H17         -5.4010    -5.5850    -1.2500 ha         1 CKY       0.136250
     58 H18          0.5800     0.4420    -6.5560 ha         1 CKY       0.145000
     59 H19         -4.4640    -7.0470    -7.0980 ha         1 CKY       0.146000
     60 H20         -2.8310    -7.9210    -3.2450 ha         1 CKY       0.146000
     61 H21        -10.1230    -4.7910    -2.4350 ha         1 CKY       0.146000
     62 H22         -7.1940    -6.3910     0.2370 ha         1 CKY       0.146000
     63 H23          2.0260     1.2130     3.0940 h1         1 CKY       0.041700
     64 H24          1.9680     2.0880     1.5530 h1         1 CKY       0.041700
     65 H25          1.8930     0.8860    -0.5080 h1         1 CKY       0.045700
     66 H26          1.8930    -0.8860    -0.5080 h1         1 CKY       0.045700
     67 H27         -0.2290     2.2210     2.5970 h1         1 CKY       0.087700
     68 H28         -1.0170    -0.5560     2.4670 hc         1 CKY       0.043700
     69 H29         -1.0280     0.5280     3.8650 hc         1 CKY       0.043700
     70 H30          0.4250    -0.4060     3.4810 hc         1 CKY       0.043700
     71 H31         -1.5870     0.3080    -1.4160 hc         1 CKY       0.078200
     72 H32         -0.0390     1.0220    -1.8900 hc         1 CKY       0.078200
     73 H33         -6.0890    -3.6690    -4.3910 hc         1 CKY       0.079700
     74 H34          3.0160    -0.0700     1.3910 hn         1 CKY       0.358800
     75 N19         -2.6840    -2.0000    -3.2450 ns         1 CKY      -0.473100
     76 O           -1.3060     2.3520    -1.1470 o          1 CKY      -0.638300
     77 O5          -1.6050     3.2910     1.1490 o          1 CKY      -0.638300
     78 H14         -5.6680    -5.1180    -6.1490 ha         1 CKY       0.136250
@<TRIPOS>BOND
     1    39    27 1
     2    27    21 ar
     3    27    22 ar
     4    21    16 ar
     5    22    17 ar
     6    16    24 ar
     7    17    24 ar
     8    24    34 1
     9    19    26 ar
    10    19    14 ar
    11    38    26 1
    12    26    20 ar
    13    14    23 ar
    14    20    15 ar
    15    23    15 ar
    16    23    34 1
    17    12     3 ar
    18    12     2 ar
    19     3     4 ar
    20    34    11 1
    21     2    28 ar
    22    11    10 1
    23     4     5 ar
    24    76    41 2
    25    28     5 ar
    26    28    41 1
    27    10    75 1
    28    10    37 2
    29    41    77 2
    30    41    35 1
    31    30     1 1
    32    30    36 1
    33    75    25 1
    34     1    35 1
    35     1    33 1
    36    35    31 1
    37     6    33 1
    38     6     7 1
    39    36    29 1
    40    29    31 1
    41    25     7 ar
    42    25     8 ar
    43    31    32 1
    44     7     9 ar
    45     8    13 ar
    46     9    40 1
    47     9    18 ar
    48    13    18 ar
    49     1    42 1
    50     2    43 1
    51     3    44 1
    52     4    45 1
    53     5    46 1
    54     6    47 1
    55     6    48 1
    56     8    49 1
    57    75    50 1
    58    11    51 1
    59    11    52 1
    60    12    53 1
    61    13    54 1
    62    14    78 1
    63    15    55 1
    64    16    56 1
    65    17    57 1
    66    18    58 1
    67    19    59 1
    68    20    60 1
    69    21    61 1
    70    22    62 1
    71    29    63 1
    72    29    64 1
    73    30    65 1
    74    30    66 1
    75    31    67 1
    76    32    68 1
    77    32    69 1
    78    32    70 1
    79    33    71 1
    80    33    72 1
    81    34    73 1
    82    36    74 1
@<TRIPOS>SUBSTRUCTURE
     1 CKY         1 TEMP              0 ****  ****    0 ROOT
