@<TRIPOS>MOLECULE
molecule
   50    54     1     0     0
SMALL
bcc


@<TRIPOS>ATOM
      1 O5'          0.0000     0.0000     0.0000 os         1 CKZ      -0.382600
      2 C5'          1.4290     0.0000     0.0000 c3         1 CKZ       0.144100
      3 C4'          1.9380     0.0000     1.4440 c3         1 CKZ       0.102100
      4 C3'          1.3740     1.2210     2.1770 c3         1 CKZ       0.111100
      5 C2'         -0.1560     1.1870     2.1000 c3         1 CKZ       0.113100
      6 C1'         -0.5830     1.1420     0.6300 c3         1 CKZ       0.135800
      7 C1          -2.0860     1.0490     0.5470 cc         1 CKZ       0.376800
      8 O2'         -0.6910     2.3600     2.7170 oh         1 CKZ      -0.603800
      9 O3'          1.7850     1.1890     3.5450 oh         1 CKZ      -0.602800
     10 O4'          3.3660     0.0570     1.4460 oh         1 CKZ      -0.603800
     11 C6'          1.9390    -1.2490    -0.7210 c3         1 CKZ       0.152400
     12 O6'          1.5610    -1.1910    -2.0980 oh         1 CKZ      -0.600800
     13 N5          -2.9080     1.8910    -0.1370 na         1 CKZ      -0.420700
     14 C4          -4.1770     1.4220     0.0710 cc         1 CKZ       0.427000
     15 N3          -4.0740     0.3610     0.8400 nd         1 CKZ      -0.348000
     16 N2          -2.8370     0.1440     1.1140 nd         1 CKZ      -0.339000
     17 C6          -5.4280     2.0000    -0.4680 ca         1 CKZ      -0.114500
     18 C11         -5.3810     3.1340    -1.2810 ca         1 CKZ      -0.125000
     19 C10         -6.5440     3.6720    -1.7820 ca         1 CKZ      -0.105000
     20 C9          -7.7770     3.0860    -1.4790 cp         1 CKZ      -0.028000
     21 C8          -7.8190     1.9540    -0.6660 ca         1 CKZ      -0.088300
     22 C7          -6.6570     1.4100    -0.1690 ca         1 CKZ      -0.068000
     23 C14         -9.1560     3.4560    -1.8790 cp         1 CKZ      -0.048000
     24 C13        -10.0600     2.5570    -1.3190 ca         1 CKZ      -0.082300
     25 C12         -9.2660     1.5540    -0.5180 c3         1 CKZ       0.013200
     26 C18         -9.6320     4.4990    -2.6760 ca         1 CKZ      -0.101000
     27 C17        -10.9870     4.6300    -2.9010 ca         1 CKZ      -0.131000
     28 C16        -11.8770     3.7330    -2.3400 ca         1 CKZ      -0.119000
     29 C15        -11.4120     2.6960    -1.5500 ca         1 CKZ      -0.112000
     30 H1           1.7870     0.8870    -0.5070 h1         1 CKZ       0.060700
     31 H2           1.6070    -0.9030     1.9420 h1         1 CKZ       0.062700
     32 H3           1.7390     2.1250     1.7050 h1         1 CKZ       0.056700
     33 H4          -0.5230     0.3050     2.6090 h1         1 CKZ       0.080700
     34 H5          -0.2440     2.0410     0.1300 h1         1 CKZ       0.051700
     35 H6          -1.0540     2.1350     3.5570 ho         1 CKZ       0.421000
     36 H7           2.3210     1.9430     3.7290 ho         1 CKZ       0.414000
     37 H8           3.7050    -0.5650     2.0690 ho         1 CKZ       0.414000
     38 H9           1.5070    -2.1310    -0.2650 h1         1 CKZ       0.039200
     39 H10          3.0190    -1.2940    -0.6450 h1         1 CKZ       0.039200
     40 H11          2.0010    -1.8750    -2.5740 ho         1 CKZ       0.404000
     41 H12         -2.6400     2.6880    -0.6800 hn         1 CKZ       0.311700
     42 H13         -4.4270     3.5900    -1.5200 ha         1 CKZ       0.122000
     43 H14         -6.5050     4.5520    -2.4130 ha         1 CKZ       0.134000
     44 H15         -6.6980     0.5410     0.4760 ha         1 CKZ       0.159000
     45 H16         -9.4190     0.5580    -0.9150 hc         1 CKZ       0.074200
     46 H17         -9.5580     1.5960     0.5240 hc         1 CKZ       0.074200
     47 H18         -8.9390     5.2040    -3.1180 ha         1 CKZ       0.130000
     48 H19        -11.3560     5.4400    -3.5190 ha         1 CKZ       0.132000
     49 H20        -12.9400     3.8400    -2.5200 ha         1 CKZ       0.133000
     50 H21        -12.1110     1.9940    -1.1110 ha         1 CKZ       0.132000
@<TRIPOS>BOND
     1     9     4 1
     2    10     3 1
     3     4     3 1
     4     4     5 1
     5     3     2 1
     6     8     5 1
     7     5     6 1
     8    12    11 1
     9     2    11 1
    10     2     1 1
    11     6     1 1
    12     6     7 1
    13    16     7 2
    14    16    15 1
    15     7    13 1
    16    15    14 2
    17    13    14 1
    18    14    17 1
    19    17    22 ar
    20    17    18 ar
    21    22    21 ar
    22    18    19 ar
    23    21    25 1
    24    21    20 ar
    25    19    20 ar
    26    25    24 1
    27    20    23 1
    28    24    23 ar
    29    24    29 ar
    30    23    26 ar
    31    29    28 ar
    32    26    27 ar
    33    28    27 ar
    34     2    30 1
    35     3    31 1
    36     4    32 1
    37     5    33 1
    38     6    34 1
    39     8    35 1
    40     9    36 1
    41    10    37 1
    42    11    38 1
    43    11    39 1
    44    12    40 1
    45    13    41 1
    46    18    42 1
    47    19    43 1
    48    22    44 1
    49    25    45 1
    50    25    46 1
    51    26    47 1
    52    27    48 1
    53    28    49 1
    54    29    50 1
@<TRIPOS>SUBSTRUCTURE
     1 CKZ         1 TEMP              0 ****  ****    0 ROOT
