@<TRIPOS>MOLECULE
molecule
   43    46     1     0     0
SMALL
bcc


@<TRIPOS>ATOM
      1 O32          0.0000     0.0000     0.0000 o          1 CL3      -0.590100
      2 N1          -2.5380    -2.4250    -5.5350 nc         1 CL3      -0.468800
      3 N2          -1.3790    -3.1330    -5.2120 na         1 CL3       0.093300
      4 C3          -1.2690    -4.4630    -5.5410 cc         1 CL3      -0.133300
      5 C4          -2.3390    -5.1030    -6.1940 cc         1 CL3      -0.021000
      6 C5          -3.4570    -4.3890    -6.4900 cd         1 CL3      -0.255300
      7 C6          -3.5380    -3.0230    -6.1460 cd         1 CL3       0.475800
      8 C7          -0.2050    -2.7990    -4.6060 cc         1 CL3       0.403400
      9 N8           0.5440    -3.8850    -4.5770 nd         1 CL3      -0.348700
     10 N9          -0.0780    -4.8670    -5.1270 nd         1 CL3      -0.067000
     11 C10         -4.7620    -2.2550    -6.4750 ca         1 CL3      -0.158500
     12 C11          0.1590    -1.4690    -4.0740 ca         1 CL3      -0.092900
     13 C12          0.8570    -1.3630    -2.8700 ca         1 CL3      -0.077000
     14 C13          1.1900    -0.1140    -2.3750 ca         1 CL3       0.047600
     15 C14          0.8390     1.0300    -3.0830 ca         1 CL3      -0.106000
     16 C15          0.1520     0.9260    -4.2780 ca         1 CL3      -0.131000
     17 C16         -0.1890    -0.3150    -4.7780 ca         1 CL3      -0.093000
     18 C17         -5.4090    -2.4580    -7.6930 ca         1 CL3      -0.094000
     19 C18         -6.5520    -1.7450    -7.9910 ca         1 CL3      -0.132000
     20 C19         -7.0480    -0.8200    -7.0890 ca         1 CL3      -0.109000
     21 C20         -6.4070    -0.6100    -5.8820 ca         1 CL3      -0.132000
     22 C21         -5.2680    -1.3240    -5.5700 ca         1 CL3      -0.094000
     23 N22          1.8860    -0.0020    -1.1660 n          1 CL3      -0.414000
     24 C23          3.3450     0.1140    -1.1690 c3         1 CL3       0.098300
     25 C27          1.2120     0.0000     0.0000 c          1 CL3       0.662100
     26 C28          1.9660     0.0000     1.3050 c3         1 CL3      -0.168100
     27 H5          -4.2880    -4.8690    -6.9930 ha         1 CL3       0.156000
     28 H12          1.1300    -2.2550    -2.3200 ha         1 CL3       0.155000
     29 H14          1.1020     2.0070    -2.6960 ha         1 CL3       0.138000
     30 H15         -0.1190     1.8210    -4.8250 ha         1 CL3       0.137000
     31 H16         -0.7280    -0.3920    -5.7150 ha         1 CL3       0.145000
     32 H17         -5.0210    -3.1820    -8.3990 ha         1 CL3       0.143000
     33 H18         -7.0570    -1.9030    -8.9360 ha         1 CL3       0.137500
     34 H19         -7.9440    -0.2610    -7.3290 ha         1 CL3       0.134000
     35 H20         -6.8010     0.1140    -5.1800 ha         1 CL3       0.137500
     36 H21         -4.7660    -1.1590    -4.6240 ha         1 CL3       0.143000
     37 H231         3.7760    -0.7230    -0.6340 h1         1 CL3       0.042033
     38 H232         3.6350     1.0390    -0.6850 h1         1 CL3       0.042033
     39 H233         3.7050     0.1130    -2.1910 h1         1 CL3       0.042033
     40 H281         1.2630    -0.0480     2.1270 hc         1 CL3       0.061367
     41 H282         2.5520     0.9070     1.3830 hc         1 CL3       0.061367
     42 H283         2.6240    -0.8600     1.3420 hc         1 CL3       0.061367
     43 H4          -2.2730    -6.1520    -6.4570 ha         1 CL3       0.168000
@<TRIPOS>BOND
     1     1    25 2
     2     2     3 1
     3     2     7 2
     4     3     4 1
     5     3     8 1
     6     4     5 1
     7     4    10 2
     8     5     6 2
     9     5    43 1
    10     6     7 1
    11     6    27 1
    12     7    11 1
    13     8     9 2
    14     8    12 1
    15     9    10 1
    16    11    18 ar
    17    11    22 ar
    18    12    13 ar
    19    12    17 ar
    20    13    14 ar
    21    13    28 1
    22    14    15 ar
    23    14    23 1
    24    15    16 ar
    25    15    29 1
    26    16    17 ar
    27    16    30 1
    28    17    31 1
    29    18    19 ar
    30    18    32 1
    31    19    20 ar
    32    19    33 1
    33    20    21 ar
    34    20    34 1
    35    21    22 ar
    36    21    35 1
    37    22    36 1
    38    23    24 1
    39    23    25 1
    40    24    37 1
    41    24    38 1
    42    24    39 1
    43    25    26 1
    44    26    40 1
    45    26    41 1
    46    26    42 1
@<TRIPOS>SUBSTRUCTURE
     1 CL3         1 TEMP              0 ****  ****    0 ROOT
