@<TRIPOS>MOLECULE
molecule
   53    56     1     0     0
SMALL
bcc


@<TRIPOS>ATOM
      1 C1           0.0000     0.0000     0.0000 c2         1 CL4      -0.180200
      2 C2           1.5060     0.0000     0.0000 c3         1 CL4       0.140200
      3 N3           1.9960     0.0000     1.3810 ns         1 CL4      -0.584900
      4 C4          -0.6560     0.9290    -0.6500 c2         1 CL4      -0.165200
      5 C5          -2.1630     0.9290    -0.6490 c3         1 CL4       0.161300
      6 O6          -2.6650    -0.0860     0.2470 os         1 CL4      -0.419600
      7 C7          -2.7030     2.2600    -0.0810 c3         1 CL4       0.094100
      8 O8          -3.0610     3.1490    -1.1410 oh         1 CL4      -0.569800
      9 C9          -3.9560     1.8440     0.7250 c3         1 CL4       0.091100
     10 O10         -5.1260     2.4650     0.1890 oh         1 CL4      -0.559800
     11 C11         -4.0210     0.3110     0.5500 c3         1 CL4       0.259800
     12 N12         -4.4740    -0.3260     1.7880 na         1 CL4      -0.258000
     13 C13         -3.6780    -0.8190     2.7800 cc         1 CL4       0.428700
     14 N14         -4.4110    -1.3140     3.7340 nd         1 CL4      -0.578100
     15 C15         -5.7210    -1.1670     3.4190 ca         1 CL4      -0.197200
     16 C16         -6.9320    -1.5090     4.0430 ca         1 CL4       0.785200
     17 N17         -6.9400    -2.1380     5.2760 nv         1 CL4      -1.006500
     18 N18         -8.0700    -1.2110     3.4240 nb         1 CL4      -0.817000
     19 C19         -8.0720    -0.6120     2.2480 ca         1 CL4       0.732900
     20 N20         -6.9620    -0.2790     1.6230 nb         1 CL4      -0.778000
     21 C21         -5.7770    -0.5360     2.1640 ca         1 CL4       0.471800
     22 C22          4.9590    -0.0110     3.6150 ca         1 CL4       0.168100
     23 C23          5.3230    -0.0070     4.9580 ca         1 CL4       0.061100
     24 C24          4.3470    -0.0070     5.9400 ca         1 CL4      -0.090000
     25 C25          3.0050    -0.0060     5.5920 ca         1 CL4      -0.157200
     26 C26          2.6290    -0.0040     4.2670 ca         1 CL4      -0.050000
     27 C27          3.6040    -0.0030     3.2640 ca         1 CL4      -0.162600
     28 O29          5.9130    -0.0110     2.6490 oh         1 CL4      -0.485100
     29 C30          3.3200    -0.0000     1.6260 c          1 CL4       0.688700
     30 O31          4.1110     0.0000     0.7020 o          1 CL4      -0.552100
     31 N32          1.9710    -0.0050     6.6520 no         1 CL4       0.296200
     32 O33          0.7910    -0.0040     6.3500 o          1 CL4      -0.199500
     33 O34          2.3000    -0.0060     7.8240 o          1 CL4      -0.199500
     34 HC1         -0.5410    -0.7690     0.5380 ha         1 CL4       0.150000
     35 HC21         1.8670    -0.8840    -0.5110 h1         1 CL4       0.063200
     36 HC22         1.8670     0.8840    -0.5110 h1         1 CL4       0.063200
     37 HN3          1.3460     0.0040     2.1420 hn         1 CL4       0.319500
     38 HC4         -0.1150     1.6980    -1.1870 ha         1 CL4       0.143000
     39 HC5         -2.5460     0.7670    -1.6490 h1         1 CL4       0.090700
     40 HC7         -1.9690     2.7160     0.5730 h1         1 CL4       0.052700
     41 HO8         -2.5980     3.9640    -1.0370 ho         1 CL4       0.405000
     42 HC9         -3.8320     2.0980     1.7710 h1         1 CL4       0.058700
     43 H10         -5.3590     3.2080     0.7210 ho         1 CL4       0.410000
     44 H11         -4.6770     0.0560    -0.2730 h2         1 CL4       0.113700
     45 H13         -2.5950    -0.8020     2.7740 h5         1 CL4       0.083800
     46 H171        -6.2600    -1.8910     5.9680 hn         1 CL4       0.448800
     47 H172        -7.6400    -2.8220     5.4850 hn         1 CL4       0.448800
     48 H19         -9.0220    -0.3880     1.7790 h5         1 CL4       0.063100
     49 H24          4.6340    -0.0060     6.9840 ha         1 CL4       0.178000
     50 H26          1.5790    -0.0010     4.0020 ha         1 CL4       0.163000
     51 H28          6.8770     0.8440     5.6300 ho         1 CL4       0.435000
     52 H29          6.3290    -0.8560     2.6180 ho         1 CL4       0.445000
     53 O28          6.6370    -0.0080     5.3060 oh         1 CL4      -0.504100
@<TRIPOS>BOND
     1     1     2 1
     2     1     4 2
     3     1    34 1
     4     2     3 1
     5     2    35 1
     6     2    36 1
     7     3    29 1
     8     3    37 1
     9     4     5 1
    10     4    38 1
    11     5     6 1
    12     5     7 1
    13     5    39 1
    14     6    11 1
    15     7     8 1
    16     7     9 1
    17     7    40 1
    18     8    41 1
    19     9    10 1
    20     9    11 1
    21     9    42 1
    22    10    43 1
    23    11    12 1
    24    11    44 1
    25    12    13 1
    26    12    21 1
    27    13    14 2
    28    13    45 1
    29    14    15 1
    30    15    16 ar
    31    15    21 ar
    32    16    17 1
    33    16    18 ar
    34    17    46 1
    35    17    47 1
    36    18    19 ar
    37    19    20 ar
    38    19    48 1
    39    20    21 ar
    40    22    23 ar
    41    22    27 ar
    42    22    28 1
    43    23    24 ar
    44    23    53 1
    45    24    25 ar
    46    24    49 1
    47    25    26 ar
    48    25    31 1
    49    26    27 ar
    50    26    50 1
    51    27    29 1
    52    53    51 1
    53    28    52 1
    54    29    30 2
    55    31    32 1
    56    31    33 1
@<TRIPOS>SUBSTRUCTURE
     1 CL4         1 TEMP              0 ****  ****    0 ROOT
