@<TRIPOS>MOLECULE
CL4
   53    58     1     0     0
SMALL
bcc


@<TRIPOS>ATOM
      1 C1           0.0000     0.0000     0.0000 c2         1 CL4      -0.103000
      2 C2           1.5060     0.0000     0.0000 DU         1 CL4       0.096000
      3 N3           1.9960     0.0000     1.3810 ns         1 CL4      -0.074000
      4 C4          -0.6560     0.9290    -0.6500 c2         1 CL4      -0.142000
      5 C5          -2.1630     0.9290    -0.6490 DU         1 CL4       0.127000
      6 O6          -2.6650    -0.0860     0.2470 os         1 CL4      -0.251000
      7 C7          -2.7030     2.2600    -0.0810 c3         1 CL4      -0.006000
      8 O8          -3.0610     3.1490    -1.1410 oh         1 CL4      -0.279000
      9 C9          -3.9560     1.8440     0.7250 c3         1 CL4       0.014000
     10 O10         -5.1260     2.4650     0.1890 oh         1 CL4      -0.269000
     11 C11         -4.0210     0.3110     0.5500 c3         1 CL4       0.066000
     12 N12         -4.4740    -0.3260     1.7880 na         1 CL4       0.280000
     13 C13         -3.6780    -0.8190     2.7800 c2         1 CL4      -0.202000
     14 N14         -4.4110    -1.3140     3.7340 n2         1 CL4      -0.060000
     15 C15         -5.7210    -1.1670     3.4190 c2         1 CL4      -0.239000
     16 C16         -6.9320    -1.5090     4.0430 c2         1 CL4       0.069000
     17 N17         -6.9400    -2.1380     5.2760 nv         1 CL4       0.091000
     18 N18         -8.0700    -1.2110     3.4240 n2         1 CL4      -0.200000
     19 C19         -8.0720    -0.6120     2.2480 c2         1 CL4       0.017000
     20 N20         -6.9620    -0.2790     1.6230 n2         1 CL4      -0.136000
     21 C21         -5.7770    -0.5360     2.1640 c2         1 CL4      -0.125000
     22 C22          4.9590    -0.0110     3.6150 ca         1 CL4       0.148000
     23 C23          5.3230    -0.0070     4.9580 ca         1 CL4       0.004000
     24 C24          4.3470    -0.0070     5.9400 ca         1 CL4      -0.027000
     25 C25          3.0050    -0.0060     5.5920 ca         1 CL4      -0.410000
     26 C26          2.6290    -0.0040     4.2670 ca         1 CL4       0.013000
     27 C27          3.6040    -0.0030     3.2640 ca         1 CL4      -0.177000
     28 O29          5.9130    -0.0110     2.6490 oh         1 CL4      -0.219000
     29 C30          3.3200    -0.0000     1.6260 c2         1 CL4       0.300000
     30 O31          4.1110     0.0000     0.7020 o          1 CL4      -0.371000
     31 N32          1.9710    -0.0050     6.6520 no         1 CL4       1.305000
     32 O33          0.7910    -0.0040     6.3500 o          1 CL4      -0.597500
     33 O34          2.3000    -0.0060     7.8240 o          1 CL4      -0.597500
     34 HC1          0.6120    -0.3480    -0.8240 DU         1 CL4       0.015000
     35 HC21         1.8670    -0.8840    -0.5110 ha         1 CL4       0.070500
     36 HC22         1.8670     0.8850    -0.5110 ha         1 CL4       0.070500
     37 HN3          1.3460    -0.0310     2.1420 hn         1 CL4       0.116000
     38 HC4         -1.2680     0.2760    -1.2600 DU         1 CL4       0.062000
     39 HC5         -2.5460     0.7670    -1.6490 ha         1 CL4       0.080000
     40 HC7         -1.9690     2.7160     0.5730 h1         1 CL4       0.068000
     41 HO8         -2.5740     3.9520    -1.0560 ho         1 CL4       0.190000
     42 HC9         -3.8320     2.0980     1.7710 h1         1 CL4       0.062000
     43 H10         -5.3010     3.2630     0.6590 ho         1 CL4       0.194000
     44 H11         -4.6770     0.0560    -0.2730 h2         1 CL4       0.109000
     45 H13         -2.5950    -0.8010     2.7740 h5         1 CL4       0.170000
     46 H171        -7.6630    -2.7930     5.4990 hn         1 CL4       0.072000
     47 H172        -6.2490    -1.9030     5.9610 hn         1 CL4       0.072000
     48 H19         -9.0220    -0.3880     1.7790 h5         1 CL4       0.133000
     49 H24          4.6340    -0.0060     6.9840 ha         1 CL4       0.144000
     50 H26          1.5790    -0.0010     4.0020 ha         1 CL4       0.133000
     51 H28          6.9110     0.8730     5.5010 ho         1 CL4       0.214000
     52 H29          6.3610    -0.8400     2.6500 ho         1 CL4       0.222000
     53 O28          6.6370    -0.0080     5.3060 oh         1 CL4      -0.242000
@<TRIPOS>BOND
     1     1     2 1   
     2     1     4 1   
     3     1    34 1   
     4     2     3 1   
     5     2    34 1   
     6     2    35 1   
     7     2    36 1   
     8     3    29 1   
     9     3    37 1   
    10     4     5 1   
    11     4    38 1   
    12     5     6 1   
    13     5     7 1   
    14     5    38 1   
    15     5    39 1   
    16     6    11 1   
    17     7     8 1   
    18     7     9 1   
    19     7    40 1   
    20     8    41 1   
    21     9    10 1   
    22     9    11 1   
    23     9    42 1   
    24    10    43 1   
    25    11    12 1   
    26    11    44 1   
    27    12    13 1   
    28    12    21 1   
    29    13    14 1   
    30    13    45 1   
    31    14    15 1   
    32    15    16 1   
    33    15    21 1   
    34    16    17 1   
    35    16    18 1   
    36    17    46 1   
    37    17    47 1   
    38    18    19 1   
    39    19    20 1   
    40    19    48 1   
    41    20    21 1   
    42    22    23 1   
    43    22    27 1   
    44    22    28 1   
    45    23    24 1   
    46    23    53 1   
    47    24    25 1   
    48    24    49 1   
    49    25    26 1   
    50    25    31 1   
    51    26    27 1   
    52    26    50 1   
    53    27    29 1   
    54    28    52 1   
    55    29    30 1   
    56    31    32 1   
    57    31    33 1   
    58    51    53 1   
@<TRIPOS>SUBSTRUCTURE
     1 CL4         1 TEMP              0 ****  ****    0 ROOT
