@<TRIPOS>MOLECULE
CL5
   17    16     1     0     0
SMALL
bcc


@<TRIPOS>ATOM
      1 C7           0.0000     0.0000     0.0000 c          1 CL5       0.657900
      2 C6           1.5110     0.0000     0.0000 c3         1 CL5      -0.144400
      3 O8          -0.6990     0.0000     1.0070 o          1 CL5      -0.575100
      4 C5           2.0930    -0.0490     1.4080 c3         1 CL5       0.142800
      5 N4           3.5500    -0.0240     1.3740 n7         1 CL5      -0.574200
      6 C3           4.1020    -0.0810     2.7200 c3         1 CL5       0.036800
      7 C12          5.5970    -0.0600     2.6250 c          1 CL5       0.980600
      8 O13          6.2590     0.0140     1.6020 o          1 CL5      -0.900800
      9 O14          6.1410    -0.1350     3.8680 o          1 CL5      -0.900800
     10 H7          -0.4940    -0.0000    -0.9640 h4         1 CL5      -0.068800
     11 H61          1.8610     0.8990    -0.4930 hc         1 CL5       0.037200
     12 H62          1.8610    -0.8630    -0.5540 hc         1 CL5       0.037200
     13 H51          1.7640    -0.9580     1.8970 h1         1 CL5       0.003200
     14 H52          1.7350     0.8050     1.9700 h1         1 CL5       0.003200
     15 HN4          3.8590     0.8150     0.9220 hn         1 CL5       0.254800
     16 H31          3.7820    -0.9950     3.2070 h1         1 CL5       0.006200
     17 H32          3.7620     0.7740     3.2910 h1         1 CL5       0.006200
@<TRIPOS>BOND
     1     1     2 1   
     2     1     3 2   
     3     1    10 1   
     4     2     4 1   
     5     2    11 1   
     6     2    12 1   
     7     4     5 1   
     8     4    13 1   
     9     4    14 1   
    10     5     6 1   
    11     5    15 1   
    12     6     7 1   
    13     6    16 1   
    14     6    17 1   
    15     7     8 1   
    16     7     9 1   
@<TRIPOS>SUBSTRUCTURE
     1 CL5         1 TEMP              0 ****  ****    0 ROOT
