@<TRIPOS>MOLECULE
molecule
   42    45     1     0     0
SMALL
bcc


@<TRIPOS>ATOM
      1 ClAY         0.0000     0.0000     0.0000 cl         1 CL6      -0.078400
      2 CAX          1.7260     0.0000     0.0000 ca         1 CL6       0.036400
      3 CAV          2.3960     0.0000     1.2230 ca         1 CL6      -0.121000
      4 CAT          3.7910    -0.0000     1.2540 ca         1 CL6      -0.125000
      5 CAS          4.5150     0.0010     0.0620 ca         1 CL6      -0.121000
      6 CAU          3.8450     0.0010    -1.1620 ca         1 CL6      -0.120000
      7 CAW          2.5020     0.0010    -1.0920 ca         1 CL6      -0.083300
      8 CAR          1.7710     0.0000    -2.5240 c3         1 CL6       0.152600
      9 CAC          0.8720    -1.1510    -2.8240 ca         1 CL6      -0.091800
     10 CAE          0.1570    -1.1830    -4.0220 ca         1 CL6      -0.105750
     11 CAF         -0.6830    -2.2600    -4.3040 ca         1 CL6      -0.130250
     12 CAD         -0.8100    -3.3040    -3.3880 ca         1 CL6      -0.120000
     13 CAB         -0.0960    -3.2710    -2.1900 ca         1 CL6      -0.130250
     14 CAA          0.7450    -2.1950    -1.9080 ca         1 CL6      -0.105750
     15 NAO          2.8220    -0.0320    -3.6430 na         1 CL6      -0.143900
     16 CAM          3.6170    -1.0580    -3.8480 cc         1 CL6       0.364400
     17 NAN          4.3970    -0.7840    -4.8690 nd         1 CL6      -0.676000
     18 CAQ          4.0230     0.4750    -5.2670 cd         1 CL6       0.264200
     19 CAP          3.0080     0.9640    -4.4780 cc         1 CL6      -0.276600
     20 CAL          1.0940     1.4560    -2.4580 ca         1 CL6      -0.091800
     21 CAK         -0.2280     1.4950    -2.6810 ca         1 CL6      -0.105750
     22 CAI         -0.8150     2.7590    -2.6230 ca         1 CL6      -0.130250
     23 CAG         -0.0320     3.8800    -2.3460 ca         1 CL6      -0.120000
     24 CAH          1.3380     3.7370    -2.1270 ca         1 CL6      -0.130250
     25 CAJ          1.9260     2.4720    -2.1850 ca         1 CL6      -0.105750
     26 HAV          1.8340    -0.0010     2.1490 ha         1 CL6       0.146000
     27 HAT          4.3120    -0.0000     2.2040 ha         1 CL6       0.141000
     28 HAS          5.5980     0.0010     0.0860 ha         1 CL6       0.139000
     29 HAU          4.3730     0.0020    -2.1080 ha         1 CL6       0.174000
     30 HAE          0.2560    -0.3720    -4.7340 ha         1 CL6       0.149250
     31 HAF         -1.2380    -2.2850    -5.2340 ha         1 CL6       0.134000
     32 HAD         -1.4630    -4.1400    -3.6070 ha         1 CL6       0.133500
     33 HAB         -0.1950    -4.0820    -1.4790 ha         1 CL6       0.134000
     34 HAA          1.2990    -2.1700    -0.9770 ha         1 CL6       0.149250
     35 HAM          3.6260    -1.9750    -3.2720 h5         1 CL6       0.068100
     36 HAQ          4.4700     1.0130    -6.0940 h4         1 CL6       0.031100
     37 HAP          2.4970     1.9180    -4.5320 h4         1 CL6       0.195000
     38 HAK         -0.8030     0.6020    -2.8940 ha         1 CL6       0.149250
     39 HAI         -1.8790     2.8700    -2.7930 ha         1 CL6       0.134000
     40 HAG         -0.4880     4.8620    -2.3010 ha         1 CL6       0.133500
     41 HAH          1.9460     4.6070    -1.9110 ha         1 CL6       0.134000
     42 HAJ          2.9860     2.3210    -2.0200 ha         1 CL6       0.149250
@<TRIPOS>BOND
     1     1     2 1
     2     2     3 ar
     3     2     7 ar
     4     3     4 ar
     5     3    26 1
     6     4     5 ar
     7     4    27 1
     8     5     6 ar
     9     5    28 1
    10     6     7 ar
    11     6    29 1
    12     7     8 1
    13     8    20 1
    14     8     9 1
    15     8    15 1
    16     9    14 ar
    17     9    10 ar
    18    10    11 ar
    19    10    30 1
    20    11    12 ar
    21    11    31 1
    22    12    13 ar
    23    12    32 1
    24    13    14 ar
    25    13    33 1
    26    14    34 1
    27    15    19 1
    28    15    16 1
    29    16    17 2
    30    16    35 1
    31    17    18 1
    32    18    19 2
    33    18    36 1
    34    19    37 1
    35    20    21 ar
    36    20    25 ar
    37    21    22 ar
    38    21    38 1
    39    22    23 ar
    40    22    39 1
    41    23    24 ar
    42    23    40 1
    43    24    25 ar
    44    24    41 1
    45    25    42 1
@<TRIPOS>SUBSTRUCTURE
     1 CL6         1 TEMP              0 ****  ****    0 ROOT
