@<TRIPOS>MOLECULE
CL8
   42    42     1     0     0
SMALL
bcc


@<TRIPOS>ATOM
      1 C1           0.0000     0.0000     0.0000 c3         1 CL8      -0.006900
      2 Cl1          1.7960     0.0000     0.0000 cl         1 CL8      -0.061900
      3 Cl2         -0.6920     0.0000     1.6410 cl         1 CL8      -0.061900
      4 C2          -0.4200    -1.2990    -0.7690 c          1 CL8       0.498100
      5 O2           0.2490    -2.3310    -0.6470 o          1 CL8      -0.561100
      6 N2          -1.4440    -1.1500    -1.4840 ns         1 CL8      -0.078900
      7 C3          -2.1990    -2.0440    -2.3930 c3         1 CL8      -0.119300
      8 C4          -1.7250    -1.8820    -3.8490 c3         1 CL8       0.283400
      9 C5          -3.5810    -2.3650    -1.9290 c3         1 CL8       0.268400
     10 O5          -4.2640    -1.2300    -2.4940 oh         1 CL8      -0.602800
     11 C6          -3.8720    -2.7220    -0.5880 ca         1 CL8      -0.063300
     12 C7          -3.3580    -3.8720    -0.0220 ca         1 CL8      -0.085000
     13 C8          -3.6280    -4.1510     1.3440 ca         1 CL8      -0.022500
     14 C9          -4.3790    -3.1930     2.0420 ca         1 CL8      -0.461200
     15 N9          -4.6840    -3.4670     3.4840 no         1 CL8       1.053200
     16 O9A         -5.3520    -2.6090     4.0550 o          1 CL8      -0.455500
     17 O9B         -4.2820    -4.4800     3.9830 o          1 CL8      -0.455500
     18 C10         -4.8390    -2.0420     1.4890 ca         1 CL8      -0.022500
     19 C11         -4.5860    -1.7860     0.1560 ca         1 CL8      -0.085000
     20 O4          -0.6340    -2.7290    -4.2740 os         1 CL8      -0.485900
     21 O15          0.7620    -5.2260    -1.1200 o          1 CL8      -0.891300
     22 C15          1.6540    -5.6110    -1.8390 c          1 CL8       0.971600
     23 O16          2.1970    -6.8230    -1.6450 o          1 CL8      -0.891300
     24 C14          2.1470    -4.7380    -2.9650 c3         1 CL8      -0.120400
     25 C13          1.3890    -3.4040    -2.9550 c3         1 CL8      -0.098400
     26 C12         -0.0510    -3.6200    -3.3360 c          1 CL8       0.684100
     27 O12         -0.6830    -4.5130    -2.8290 o          1 CL8      -0.453000
     28 H1          -0.3580     0.8680    -0.5400 h2         1 CL8       0.035700
     29 H2          -1.8330    -0.2300    -1.4270 hn         1 CL8       0.140500
     30 H3          -1.7280    -2.9930    -2.1680 h1         1 CL8       0.097700
     31 H41C        -1.4230    -0.8520    -3.9890 h1         1 CL8      -0.000800
     32 H42C        -2.5700    -2.0760    -4.4980 h1         1 CL8      -0.000800
     33 H5          -3.8930    -3.2200    -2.5160 h1         1 CL8       0.012700
     34 HA          -5.0700    -1.5130    -2.8900 ho         1 CL8       0.383000
     35 H7          -2.9100    -4.6320    -0.6520 ha         1 CL8       0.140500
     36 H11         -5.1460    -0.8830    -0.0520 ha         1 CL8       0.140500
     37 H8          -3.5750    -5.1690     1.7090 ha         1 CL8       0.138000
     38 H10         -5.2540    -1.2660     2.1210 ha         1 CL8       0.138000
     39 H141         3.2060    -4.5500    -2.8380 hc         1 CL8       0.006700
     40 H142         1.9800    -5.2400    -3.9100 hc         1 CL8       0.006700
     41 H131         1.4360    -2.9720    -1.9630 hc         1 CL8       0.043700
     42 H132         1.8490    -2.7260    -3.6640 hc         1 CL8       0.043700
@<TRIPOS>BOND
     1     1     2 1   
     2     1     3 1   
     3     1     4 1   
     4     1    28 1   
     5     4     5 2   
     6     4     6 1   
     7     6     7 1   
     8     6    29 1   
     9     7     8 1   
    10     7     9 1   
    11     7    30 1   
    12     8    20 1   
    13     8    31 1   
    14     8    32 1   
    15     9    10 1   
    16     9    11 1   
    17     9    33 1   
    18    10    34 1   
    19    11    12 ar  
    20    11    19 ar  
    21    12    13 ar  
    22    12    35 1   
    23    13    14 ar  
    24    13    37 1   
    25    14    15 1   
    26    14    18 ar  
    27    15    16 1   
    28    15    17 1   
    29    18    19 ar  
    30    18    38 1   
    31    19    36 1   
    32    20    26 1   
    33    21    22 1   
    34    22    23 1   
    35    22    24 1   
    36    24    25 1   
    37    24    39 1   
    38    24    40 1   
    39    25    26 1   
    40    25    41 1   
    41    25    42 1   
    42    26    27 2   
@<TRIPOS>SUBSTRUCTURE
     1 CL8         1 TEMP              0 ****  ****    0 ROOT
