@<TRIPOS>MOLECULE
molecule
   31    33     1     0     0
SMALL
bcc


@<TRIPOS>ATOM
      1 C2           0.0000     0.0000     0.0000 ca         1 CL9       0.839000
      2 C4           1.9950     0.0000     1.1430 ca         1 CL9       0.486800
      3 C5           1.2870     0.0010     2.3560 ca         1 CL9      -0.212200
      4 C6          -0.1180     0.0080     2.3060 ca         1 CL9       0.802200
      5 C8           3.4000    -0.0080     2.8430 cc         1 CL9       0.435700
      6 Cl          -0.8360    -0.0010    -1.5220 cl         1 CL9      -0.107000
      7 N3           1.3170     0.0000     0.0000 nb         1 CL9      -0.790000
      8 N9           3.3240    -0.0060     1.4810 na         1 CL9      -0.253000
      9 N7           2.2030     0.0020     3.3540 nd         1 CL9      -0.589100
     10 N6          -0.8690     0.0090     3.4680 nv         1 CL9      -0.978500
     11 N1          -0.7090     0.0070     1.1150 nb         1 CL9      -0.826000
     12 C1'          4.4550    -0.0100     0.5500 c3         1 CL9       0.259800
     13 C2'          4.7850     1.4330     0.1210 c3         1 CL9      -0.153400
     14 C3'          6.2610     1.6280     0.5490 c3         1 CL9       0.110100
     15 O3'          6.9920     2.3410    -0.4500 oh         1 CL9      -0.590800
     16 C4'          6.7620     0.1660     0.6640 c3         1 CL9       0.141100
     17 O4'          5.6220    -0.5410     1.2010 os         1 CL9      -0.403600
     18 C5'          7.9510     0.0760     1.6220 c3         1 CL9       0.149400
     19 O5'          8.4660    -1.2560     1.6190 oh         1 CL9      -0.597800
     20 H8           4.3200    -0.0170     3.4140 h5         1 CL9       0.088800
     21 HN6         -1.8680     0.0210     3.4180 hn         1 CL9       0.453300
     22 HN6A        -0.4130    -0.0000     4.3590 hn         1 CL9       0.453300
     23 H1'          4.2190    -0.6070    -0.3220 h2         1 CL9       0.097700
     24 H2'          4.1460     2.1370     0.6390 hc         1 CL9       0.081200
     25 H2'A         4.6870     1.5390    -0.9530 hc         1 CL9       0.081200
     26 H3'          6.3180     2.1280     1.5090 h1         1 CL9       0.050700
     27 HO3'         7.0480     3.2510    -0.2090 ho         1 CL9       0.411000
     28 H4'          7.0220    -0.2230    -0.3140 h1         1 CL9       0.087700
     29 H5'          7.6280     0.3370     2.6220 h1         1 CL9       0.033700
     30 H5'A         8.7250     0.7630     1.3010 h1         1 CL9       0.033700
     31 HO5'         9.2550    -1.2890     2.1340 ho         1 CL9       0.406000
@<TRIPOS>BOND
     1     1     6 1
     2     1     7 ar
     3     1    11 ar
     4     2     3 ar
     5     2     7 ar
     6     2     8 1
     7     3     4 ar
     8     3     9 1
     9     4    10 1
    10     4    11 ar
    11     5     8 1
    12     5     9 2
    13     8    12 1
    14    12    13 1
    15    12    17 1
    16    13    14 1
    17    14    15 1
    18    14    16 1
    19    16    17 1
    20    16    18 1
    21    18    19 1
    22     5    20 1
    23    10    21 1
    24    10    22 1
    25    12    23 1
    26    13    24 1
    27    13    25 1
    28    14    26 1
    29    15    27 1
    30    16    28 1
    31    18    29 1
    32    18    30 1
    33    19    31 1
@<TRIPOS>SUBSTRUCTURE
     1 CL9         1 TEMP              0 ****  ****    0 ROOT
