@<TRIPOS>MOLECULE
CLC
   32    32     1     0     0
SMALL
bcc


@<TRIPOS>ATOM
      1 O1           0.0000     0.0000     0.0000 o          1 CLC      -0.658100
      2 O2           2.1460    -2.1170    -3.0470 oh         1 CLC      -0.581800
      3 N2           1.8860    -0.0010    -1.1670 ns         1 CLC      -0.185900
      4 O4           3.2290     0.0460    -3.6720 oh         1 CLC      -0.564800
      5 C11          1.2120     0.0000     0.0000 c          1 CLC       0.571100
      6 C12          1.9650     0.0000     1.3050 c3         1 CLC      -0.065100
      7 C21          0.8990    -1.4430    -2.8760 c3         1 CLC       0.205400
      8 C50          1.9810     0.7200    -3.5010 c3         1 CLC       0.225400
      9 C22          1.1540    -0.0010    -2.4350 c3         1 CLC       0.008700
     10 C1           2.2320     2.1400    -3.0660 ca         1 CLC      -0.049300
     11 C2           3.3570     2.4410    -2.3180 ca         1 CLC      -0.121500
     12 C3           3.5970     3.7360    -1.9140 ca         1 CLC       0.021000
     13 C4           2.6940     4.7540    -2.2660 ca         1 CLC      -0.508200
     14 C5           1.5550     4.4380    -3.0260 ca         1 CLC       0.021000
     15 C6           1.3380     3.1370    -3.4220 ca         1 CLC      -0.121500
     16 N4           2.9180     6.0220    -1.8780 no         1 CLC       1.095200
     17 O5           2.1330     6.9000    -2.1850 o          1 CLC      -0.479500
     18 O6           3.9060     6.2910    -1.2200 o          1 CLC      -0.479500
     19 HA           1.9880    -3.0120    -3.3000 ho         1 CLC       0.388000
     20 H2           2.8850    -0.0440    -1.1670 hn         1 CLC       0.193500
     21 H4           3.4640     0.0480    -4.5850 ho         1 CLC       0.397000
     22 H121         2.2880     1.0080     1.5360 hc         1 CLC       0.023367
     23 H122         2.8300    -0.6460     1.2230 hc         1 CLC       0.023367
     24 H123         1.3180    -0.3610     2.0950 hc         1 CLC       0.023367
     25 H211         0.3570    -1.4430    -3.8140 h1         1 CLC      -0.001800
     26 H212         0.3140    -1.9540    -2.1200 h1         1 CLC      -0.001800
     27 H50          1.4390     0.7210    -4.4390 h1         1 CLC       0.017700
     28 H22          0.2080     0.5100    -2.3050 h1         1 CLC       0.070700
     29 HB           4.0520     1.6550    -2.0480 ha         1 CLC       0.125500
     30 H3           4.4780     3.9700    -1.3290 ha         1 CLC       0.139000
     31 H5           0.8540     5.2150    -3.3040 ha         1 CLC       0.139000
     32 H6           0.4610     2.8910    -4.0080 ha         1 CLC       0.125500
@<TRIPOS>BOND
     1     1     5 2   
     2     2     7 1   
     3     2    19 1   
     4     3     5 1   
     5     3     9 1   
     6     3    20 1   
     7     4     8 1   
     8     4    21 1   
     9     5     6 1   
    10     6    22 1   
    11     6    23 1   
    12     6    24 1   
    13     7     9 1   
    14     7    25 1   
    15     7    26 1   
    16     8     9 1   
    17     8    10 1   
    18     8    27 1   
    19     9    28 1   
    20    10    11 ar  
    21    10    15 ar  
    22    11    12 ar  
    23    11    29 1   
    24    12    13 ar  
    25    12    30 1   
    26    13    14 ar  
    27    13    16 1   
    28    14    15 ar  
    29    14    31 1   
    30    15    32 1   
    31    16    17 1   
    32    16    18 1   
@<TRIPOS>SUBSTRUCTURE
     1 CLC         1 TEMP              0 ****  ****    0 ROOT
