@<TRIPOS>MOLECULE
molecule
   26    27     1     0     0
SMALL
bcc


@<TRIPOS>ATOM
      1 O19          0.0000     0.0000     0.0000 o          1 CLI      -0.878800
      2 C16          1.3430     0.0000     0.0000 c          1 CLI       0.901600
      3 O18          1.9450     0.0000     1.0460 o          1 CLI      -0.878800
      4 C12          2.0960    -0.0020    -1.3050 c3         1 CLI      -0.167400
      5 C6           3.5990    -0.0020    -1.0250 c3         1 CLI      -0.000200
      6 C2           4.3530    -0.0030    -2.3300 cc         1 CLI      -0.112400
      7 C1           4.7750    -1.1460    -3.0480 ca         1 CLI      -0.086800
      8 C5           4.7550     1.0940    -3.0240 cd         1 CLI      -0.065300
      9 C11          4.5230     2.4880    -2.6230 c          1 CLI       0.894800
     10 O14          4.9730     3.4950    -3.3980 o          1 CLI      -0.821300
     11 O15          3.9270     2.7320    -1.5930 o          1 CLI      -0.821300
     12 N7           5.4160     0.6890    -4.1680 na         1 CLI      -0.147400
     13 C3           5.4370    -0.6850    -4.2030 ca         1 CLI      -0.072200
     14 C8           5.9590    -1.6070    -5.1060 ca         1 CLI      -0.139000
     15 C13          5.8190    -2.9560    -4.8670 ca         1 CLI       0.017400
     16 Cl17         6.4720    -4.1020    -5.9960 cl         1 CLI      -0.177400
     17 C9           5.1610    -3.4090    -3.7290 ca         1 CLI      -0.183000
     18 C4           4.6410    -2.5240    -2.8290 ca         1 CLI       0.089400
     19 Cl10         3.8230    -3.1040    -1.4120 cl         1 CLI      -0.095400
     20 H121         1.8350     0.8820    -1.8740 hc         1 CLI       0.032700
     21 H122         1.8340    -0.8870    -1.8720 hc         1 CLI       0.032700
     22 H61          3.8610    -0.8860    -0.4560 hc         1 CLI       0.065200
     23 H62          3.8610     0.8830    -0.4580 hc         1 CLI       0.065200
     24 HN7          5.8150     1.2950    -4.8570 hn         1 CLI       0.302700
     25 HC8          6.4130    -1.2640    -6.0280 ha         1 CLI       0.117000
     26 HC9          5.0600    -4.4730    -3.5560 ha         1 CLI       0.127000
@<TRIPOS>BOND
     1     1     2 1
     2     2     3 1
     3     2     4 1
     4     4     5 1
     5     4    20 1
     6     4    21 1
     7     5     6 1
     8     5    22 1
     9     5    23 1
    10     6     7 1
    11     6     8 2
    12     7    13 ar
    13     7    18 ar
    14     8     9 1
    15     8    12 1
    16     9    10 1
    17     9    11 1
    18    12    13 1
    19    12    24 1
    20    13    14 ar
    21    14    15 ar
    22    14    25 1
    23    15    16 1
    24    15    17 ar
    25    17    18 ar
    26    17    26 1
    27    18    19 1
@<TRIPOS>SUBSTRUCTURE
     1 CLI         1 TEMP              0 ****  ****    0 ROOT
