@<TRIPOS>MOLECULE
CLI
   26    27     1     0     0
SMALL
bcc


@<TRIPOS>ATOM
      1 O19         0.0550   -0.3760    0.0750 o         1 CLI     -0.872800
      2 C16         1.3140   -0.5320    0.0240 c         1 CLI      0.906600
      3 O18         1.9650   -1.0690    0.9690 o         1 CLI     -0.872800
      4 C12         2.0300   -0.0890   -1.2590 c3        1 CLI     -0.173400
      5 C6          3.4940    0.2450   -1.0590 c3        1 CLI     -0.021200
      6 C2          4.2940    0.1400   -2.2950 cc        1 CLI     -0.090400
      7 C1          4.6760   -1.0810   -2.9800 ca        1 CLI     -0.075800
      8 C5          4.8320    1.2090   -3.0330 cd        1 CLI     -0.093300
      9 C11         4.8340    2.7220   -2.8320 c         1 CLI      0.929800
     10 O14         5.1160    3.4250   -3.8510 o         1 CLI     -0.824300
     11 O15         4.6020    3.1880   -1.6900 o         1 CLI     -0.824300
     12 N7          5.5230    0.7040   -4.1490 na        1 CLI     -0.168400
     13 C3          5.4300   -0.6760   -4.1640 ca        1 CLI     -0.062200
     14 C8          5.9540   -1.6070   -5.0720 ca        1 CLI     -0.163000
     15 C13         5.7390   -2.9490   -4.7950 ca        1 CLI      0.019400
     16 CL17        6.3550   -4.1310   -5.8810 cl        1 CLI     -0.179400
     17 C9          5.0410   -3.3820   -3.6580 ca        1 CLI     -0.195000
     18 C4          4.5200   -2.4530   -2.7560 ca        1 CLI      0.071400
     19 CL10        3.7130   -3.0390   -1.3850 cl        1 CLI     -0.058400
     20 H121        1.4920    0.7970   -1.6800 hc        1 CLI      0.022700
     21 H122        1.9230   -0.9270   -1.9960 hc        1 CLI      0.022700
     22 H61         3.9140   -0.4500   -0.2780 hc        1 CLI      0.072200
     23 H62         3.5860    1.2950   -0.6630 hc        1 CLI      0.072200
     24 HN7         5.8810    1.2850   -4.8620 hn        1 CLI      0.303700
     25 HC8         6.5080   -1.2820   -5.9610 ha        1 CLI      0.124000
     26 HC9         4.9050   -4.4570   -3.4790 ha        1 CLI      0.130000
@<TRIPOS>BOND
     1    1    2 1   
     2    2    3 1   
     3    2    4 1   
     4    4    5 1   
     5    4   20 1   
     6    4   21 1   
     7    5    6 1   
     8    5   22 1   
     9    5   23 1   
    10    6    7 1   
    11    6    8 2   
    12    7   13 ar  
    13    7   18 ar  
    14    8    9 1   
    15    8   12 1   
    16    9   10 1   
    17    9   11 1   
    18   12   13 1   
    19   12   24 1   
    20   13   14 ar  
    21   14   15 ar  
    22   14   25 1   
    23   15   16 1   
    24   15   17 ar  
    25   17   18 ar  
    26   17   26 1   
    27   18   19 1   
@<TRIPOS>SUBSTRUCTURE
     1 CLI         1 TEMP              0 ****  ****    0 ROOT
