@<TRIPOS>MOLECULE
molecule
   32    32     1     0     0
SMALL
bcc


@<TRIPOS>ATOM
      1 C1           0.0000     0.0000     0.0000 c3         1 CLK       0.085100
      2 Cl1A         1.8020     0.0000     0.0000 cl         1 CLK      -0.131900
      3 Cl1B        -0.6000     0.0000     1.7000 cl         1 CLK      -0.131900
      4 C2          -0.5030     1.2300    -0.7100 c          1 CLK       0.648100
      5 O2           0.2840     2.0280    -1.1710 o          1 CLK      -0.582100
      6 N2          -1.8280     1.4410    -0.8320 ns         1 CLK      -0.548900
      7 C3          -2.3170     2.6380    -1.5230 c3         1 CLK       0.130700
      8 C4          -2.4870     3.7750    -0.5160 c3         1 CLK       0.120400
      9 O4          -3.4280     3.3870     0.4870 oh         1 CLK      -0.592800
     10 C5          -3.6640     2.3310    -2.1800 c3         1 CLK       0.193400
     11 O5          -4.6040     1.9430    -1.1770 oh         1 CLK      -0.587800
     12 C6          -3.4970     1.2110    -3.1730 ca         1 CLK      -0.183300
     13 C7          -3.1820     1.4970    -4.4890 ca         1 CLK      -0.063500
     14 C8          -3.0280     0.4720    -5.4010 ca         1 CLK      -0.212500
     15 C9          -3.1890    -0.8460    -4.9970 ca         1 CLK       0.212600
     16 N9          -3.0330    -1.8850    -5.9170 nv         1 CLK      -0.919200
     17 C10         -3.5100    -1.1300    -3.6750 ca         1 CLK      -0.212500
     18 C11         -3.6580    -0.1000    -2.7660 ca         1 CLK      -0.063500
     19 H1          -0.3610    -0.8850    -0.5100 h2         1 CLK       0.107700
     20 H2          -2.4770     0.8120    -0.4020 hn         1 CLK       0.340500
     21 H3          -1.6030     2.9330    -2.2830 h1         1 CLK       0.096700
     22 H4C1        -2.8490     4.6590    -1.0270 h1         1 CLK       0.031700
     23 H4C2        -1.5330     3.9920    -0.0510 h1         1 CLK       0.031700
     24 H4          -3.5360     4.0900     1.1050 ho         1 CLK       0.397000
     25 H5          -4.0260     3.2150    -2.6900 h1         1 CLK       0.043700
     26 HA          -5.4530     2.2950    -1.3880 ho         1 CLK       0.406000
     27 H7          -3.0570     2.5260    -4.8040 ha         1 CLK       0.133500
     28 H8          -2.7810     0.6970    -6.4320 ha         1 CLK       0.130000
     29 H9N1        -3.1520    -2.8340    -5.6250 hn         1 CLK       0.430800
     30 H9N2        -2.8030    -1.6800    -6.8690 hn         1 CLK       0.430800
     31 H10         -3.6360    -2.1570    -3.3560 ha         1 CLK       0.130000
     32 H11         -3.9080    -0.3200    -1.7350 ha         1 CLK       0.133500
@<TRIPOS>BOND
     1     1     2 1
     2     1     3 1
     3     1     4 1
     4     1    19 1
     5     4     5 2
     6     4     6 1
     7     6     7 1
     8     6    20 1
     9     7     8 1
    10     7    10 1
    11     7    21 1
    12     8     9 1
    13     8    22 1
    14     8    23 1
    15     9    24 1
    16    10    11 1
    17    10    12 1
    18    10    25 1
    19    11    26 1
    20    12    13 ar
    21    12    18 ar
    22    13    14 ar
    23    13    27 1
    24    14    15 ar
    25    14    28 1
    26    15    16 1
    27    15    17 ar
    28    16    29 1
    29    16    30 1
    30    17    18 ar
    31    17    31 1
    32    18    32 1
@<TRIPOS>SUBSTRUCTURE
     1 CLK         1 TEMP              0 ****  ****    0 ROOT
