@<TRIPOS>MOLECULE
molecule
   32    32     1     0     0
SMALL
bcc


@<TRIPOS>ATOM
      1 C1           0.0000     0.0000     0.0000 c3         1 CLM       0.083100
      2 Cl1          1.8020     0.0000     0.0000 cl         1 CLM      -0.124900
      3 Cl2         -0.6000     0.0000     1.7010 cl         1 CLM      -0.124900
      4 C2          -0.5040     1.2300    -0.7100 c          1 CLM       0.648100
      5 O2           0.2830     2.0280    -1.1710 o          1 CLM      -0.575100
      6 N2          -1.8290     1.4420    -0.8330 ns         1 CLM      -0.558900
      7 C3          -2.3170     2.6370    -1.5230 c3         1 CLM       0.131700
      8 C4          -2.4870     3.7750    -0.5150 c3         1 CLM       0.122400
      9 O4          -3.4280     3.3870     0.4880 oh         1 CLM      -0.594800
     10 C5          -3.6650     2.3330    -2.1780 c3         1 CLM       0.175400
     11 O5          -4.6050     1.9440    -1.1760 oh         1 CLM      -0.579800
     12 C6          -3.4980     1.2120    -3.1720 ca         1 CLM      -0.059300
     13 C7          -3.6600    -0.1000    -2.7620 ca         1 CLM      -0.135500
     14 C8          -3.5100    -1.1310    -3.6610 ca         1 CLM      -0.046500
     15 C9          -3.1900    -0.8480    -5.0000 ca         1 CLM      -0.202200
     16 N9          -3.0410    -1.8490    -5.8860 no         1 CLM       0.328200
     17 O9A         -2.7640    -1.5990    -7.0440 o          1 CLM      -0.221000
     18 O9B         -3.1830    -3.0040    -5.5290 o          1 CLM      -0.221000
     19 C10         -3.0280     0.4860    -5.4050 ca         1 CLM      -0.046500
     20 C11         -3.1880     1.5030    -4.4910 ca         1 CLM      -0.135500
     21 H1          -0.3610    -0.8850    -0.5100 h2         1 CLM       0.107700
     22 HN2         -2.4780     0.8080    -0.4110 hn         1 CLM       0.340500
     23 H3          -1.6050     2.9320    -2.2840 h1         1 CLM       0.097700
     24 H41         -1.5320     3.9910    -0.0500 h1         1 CLM       0.035700
     25 H42         -2.8480     4.6600    -1.0250 h1         1 CLM       0.035700
     26 HO4         -3.5350     4.0900     1.1070 ho         1 CLM       0.402000
     27 H5          -4.0260     3.2180    -2.6890 h1         1 CLM       0.055700
     28 HO5         -5.4530     2.3020    -1.3850 ho         1 CLM       0.412000
     29 H7          -3.9070    -0.3170    -1.7290 ha         1 CLM       0.153500
     30 H8          -3.6380    -2.1580    -3.3380 ha         1 CLM       0.172500
     31 H10         -2.7830     0.7160    -6.4350 ha         1 CLM       0.172500
     32 H11         -3.0630     2.5330    -4.8010 ha         1 CLM       0.153500
@<TRIPOS>BOND
     1     1     2 1
     2     1     3 1
     3     1     4 1
     4     1    21 1
     5     4     5 2
     6     4     6 1
     7     6     7 1
     8     6    22 1
     9     7     8 1
    10     7    10 1
    11     7    23 1
    12     8     9 1
    13     8    24 1
    14     8    25 1
    15     9    26 1
    16    10    11 1
    17    10    12 1
    18    10    27 1
    19    11    28 1
    20    12    13 ar
    21    12    20 ar
    22    13    14 ar
    23    13    29 1
    24    14    15 ar
    25    14    30 1
    26    15    16 1
    27    15    19 ar
    28    16    17 1
    29    16    18 1
    30    19    20 ar
    31    19    31 1
    32    20    32 1
@<TRIPOS>SUBSTRUCTURE
     1 CLM         1 TEMP              0 ****  ****    0 ROOT
