@<TRIPOS>MOLECULE
molecule
   48    49     1     0     0
SMALL
bcc


@<TRIPOS>ATOM
      1 Cl           0.0000     0.0000     0.0000 cl         1 CLQ      -0.107400
      2 N1           5.0680     0.0000     0.0000 nb         1 CLQ      -0.732000
      3 C1           6.2430     0.0000     0.5870 ca         1 CLQ       0.484200
      4 C2           6.3710     0.0000     1.9680 ca         1 CLQ      -0.367300
      5 C3           5.2360     0.0000     2.7640 ca         1 CLQ       0.248600
      6 C4           3.9760    -0.0070     2.1180 ca         1 CLQ      -0.213300
      7 C5           2.7820    -0.0010     2.8520 ca         1 CLQ      -0.091000
      8 C6           1.5880     0.0000     2.1950 ca         1 CLQ      -0.141000
      9 C7           1.5400     0.0000     0.8020 ca         1 CLQ       0.047400
     10 C8           2.6830    -0.0010     0.0610 ca         1 CLQ      -0.169300
     11 C9           3.9310    -0.0000     0.7030 ca         1 CLQ       0.466600
     12 N2           5.3310    -0.0000     4.1460 nu         1 CLQ      -0.799600
     13 C10          6.6470     0.0010     4.7890 c3         1 CLQ       0.233500
     14 C11          6.5560     0.7220     6.1340 c3         1 CLQ      -0.096400
     15 C12          6.0970     2.1640     5.9110 c3         1 CLQ      -0.080400
     16 C13          6.0070     2.8860     7.2570 c3         1 CLQ       0.132800
     17 N3           5.4770     4.2390     7.0530 n3         1 CLQ      -0.669600
     18 C14          4.0330     4.0990     6.8270 c3         1 CLQ       0.128300
     19 C15          3.4140     5.4800     6.6060 c3         1 CLQ      -0.093100
     20 C16          5.6390     4.9530     8.3260 c3         1 CLQ       0.128300
     21 C17          7.0800     5.4530     8.4520 c3         1 CLQ      -0.093100
     22 C18          7.1060    -1.4420     5.0120 c3         1 CLQ      -0.115100
     23 H21          7.3540     0.0000     2.4230 ha         1 CLQ       0.140000
     24 H51          2.8080    -0.0010     3.9350 ha         1 CLQ       0.126000
     25 H61          0.6660     0.0010     2.7630 ha         1 CLQ       0.142000
     26 H81          2.6290    -0.0850    -1.0180 ha         1 CLQ       0.163000
     27 HN21         4.5020    -0.0500     4.7040 hn         1 CLQ       0.441800
     28 H101         7.3600     0.5120     4.1530 h1         1 CLQ       0.069700
     29 H111         5.8440     0.2100     6.7710 hc         1 CLQ       0.049200
     30 H112         7.5290     0.7220     6.6100 hc         1 CLQ       0.049200
     31 H121         6.8100     2.6750     5.2750 hc         1 CLQ       0.055200
     32 H122         5.1240     2.1640     5.4360 hc         1 CLQ       0.055200
     33 H131         5.3470     2.3360     7.9180 h1         1 CLQ       0.035700
     34 H132         6.9930     2.9470     7.7010 h1         1 CLQ       0.035700
     35 H141         3.5760     3.6330     7.6910 h1         1 CLQ       0.036200
     36 H142         3.8620     3.4830     5.9520 h1         1 CLQ       0.036200
     37 H151         3.0480     5.8670     7.5490 hc         1 CLQ       0.039700
     38 H152         2.5920     5.3990     5.9050 hc         1 CLQ       0.039700
     39 H153         4.1640     6.1520     6.2060 hc         1 CLQ       0.039700
     40 H161         4.9600     5.7970     8.3560 h1         1 CLQ       0.036200
     41 H162         5.4160     4.2820     9.1470 h1         1 CLQ       0.036200
     42 H171         7.6540     4.7530     9.0470 hc         1 CLQ       0.039700
     43 H172         7.5210     5.5360     7.4660 hc         1 CLQ       0.039700
     44 H173         7.0840     6.4230     8.9330 hc         1 CLQ       0.039700
     45 H181         7.1160    -1.9680     4.0660 hc         1 CLQ       0.044033
     46 H182         6.4240    -1.9370     5.6930 hc         1 CLQ       0.044033
     47 H183         8.1030    -1.4420     5.4360 hc         1 CLQ       0.044033
     48 H11          7.1370     0.0000    -0.0250 h4         1 CLQ       0.021100
@<TRIPOS>BOND
     1     1     9 1
     2     2     3 ar
     3     2    11 ar
     4     3     4 ar
     5     3    48 1
     6     4     5 ar
     7     4    23 1
     8     5     6 ar
     9     5    12 1
    10     6     7 ar
    11     6    11 ar
    12     7     8 ar
    13     7    24 1
    14     8     9 ar
    15     8    25 1
    16     9    10 ar
    17    10    11 ar
    18    10    26 1
    19    12    13 1
    20    12    27 1
    21    13    14 1
    22    13    22 1
    23    13    28 1
    24    14    15 1
    25    14    29 1
    26    14    30 1
    27    15    16 1
    28    15    31 1
    29    15    32 1
    30    16    17 1
    31    16    33 1
    32    16    34 1
    33    17    18 1
    34    17    20 1
    35    18    19 1
    36    18    35 1
    37    18    36 1
    38    19    37 1
    39    19    38 1
    40    19    39 1
    41    20    21 1
    42    20    40 1
    43    20    41 1
    44    21    42 1
    45    21    43 1
    46    21    44 1
    47    22    45 1
    48    22    46 1
    49    22    47 1
@<TRIPOS>SUBSTRUCTURE
     1 CLQ         1 TEMP              0 ****  ****    0 ROOT
