@<TRIPOS>MOLECULE
CLR
   74    77     1     0     0
SMALL
bcc


@<TRIPOS>ATOM
      1 C1          0.0770   -0.0380    0.0510 c3        1 CLR     -0.066400
      2 C2          1.5190    0.3620    0.2590 c3        1 CLR     -0.113400
      3 C3          1.8130    0.5510    1.7410 c3        1 CLR      0.145100
      4 C4          1.4910   -0.7220    2.5190 c3        1 CLR     -0.038200
      5 C5          0.1040   -1.2000    2.2480 c2        1 CLR     -0.110400
      6 C6         -0.6970   -1.5360    3.2700 c2        1 CLR     -0.165200
      7 C7         -2.0750   -2.0490    3.1210 c3        1 CLR     -0.043200
      8 C8         -2.3660   -2.5200    1.7040 c3        1 CLR     -0.046700
      9 C9         -1.8410   -1.4930    0.6920 c3        1 CLR     -0.048700
     10 C10        -0.3070   -1.3240    0.8010 c3        1 CLR      0.000200
     11 C11        -2.2790   -1.8120   -0.7330 c3        1 CLR     -0.075400
     12 C12        -3.7680   -2.0820   -0.8820 c3        1 CLR     -0.065400
     13 C13        -4.2170   -3.1730    0.0780 c3        1 CLR     -0.045000
     14 C14        -3.8590   -2.6730    1.5000 c3        1 CLR     -0.064700
     15 C15        -4.6360   -3.5980    2.4240 c3        1 CLR     -0.074400
     16 C16        -5.9160   -3.9200    1.6500 c3        1 CLR     -0.078400
     17 C17        -5.7470   -3.3710    0.2170 c3        1 CLR     -0.053700
     18 C18        -3.5500   -4.4960   -0.2600 c3        1 CLR     -0.082100
     19 C19         0.4250   -2.5100    0.1800 c3        1 CLR     -0.084100
     20 C20        -6.4270   -4.2590   -0.8190 c3        1 CLR     -0.055700
     21 C21        -6.2310   -3.7280   -2.2260 c3        1 CLR     -0.091100
     22 C22        -7.9220   -4.3670   -0.5220 c3        1 CLR     -0.080400
     23 C23        -8.5330   -5.6150   -1.1260 c3        1 CLR     -0.079400
     24 C24       -10.0180   -5.6850   -0.8400 c3        1 CLR     -0.076400
     25 C25       -10.6580   -6.9460   -1.4030 c3        1 CLR     -0.067700
     26 C26       -12.0010   -7.1870   -0.7430 c3        1 CLR     -0.089600
     27 C27       -10.8240   -6.8590   -2.9050 c3        1 CLR     -0.089600
     28 O1          3.1940    0.8160    1.9640 oh        1 CLR     -0.601800
     29 H11        -0.1040   -0.1860   -1.0450 hc        1 CLR      0.044200
     30 H12        -0.5880    0.7970    0.3960 hc        1 CLR      0.044200
     31 H21         1.7260    1.3180   -0.2900 hc        1 CLR      0.046700
     32 H22         2.2050   -0.4210   -0.1570 hc        1 CLR      0.046700
     33 H3          1.2050    1.4110    2.1430 h1        1 CLR      0.035700
     34 H41         1.6380   -0.5200    3.6130 hc        1 CLR      0.060200
     35 H42         2.2280   -1.5200    2.2300 hc        1 CLR      0.060200
     36 H6         -0.3510   -1.4280    4.3120 ha        1 CLR      0.121000
     37 H71        -2.7950   -1.2340    3.4080 hc        1 CLR      0.049200
     38 H72        -2.2450   -2.9010    3.8330 hc        1 CLR      0.049200
     39 H8         -1.8520   -3.5070    1.5450 hc        1 CLR      0.058700
     40 H9         -2.3020   -0.5000    0.9710 hc        1 CLR      0.047700
     41 H111       -2.0130   -0.9440   -1.3940 hc        1 CLR      0.040700
     42 H112       -1.7170   -2.7040   -1.1130 hc        1 CLR      0.040700
     43 H121       -4.3480   -1.1440   -0.6780 hc        1 CLR      0.041200
     44 H122       -3.9760   -2.3820   -1.9420 hc        1 CLR      0.041200
     45 H14        -4.3110   -1.6420    1.6120 hc        1 CLR      0.045700
     46 H151       -4.0530   -4.5280    2.6400 hc        1 CLR      0.041700
     47 H152       -4.8590   -3.1020    3.4000 hc        1 CLR      0.041700
     48 H161       -6.0870   -5.0250    1.6290 hc        1 CLR      0.041700
     49 H162       -6.8000   -3.4450    2.1420 hc        1 CLR      0.041700
     50 H17        -6.2270   -2.3550    0.1620 hc        1 CLR      0.046700
     51 H181       -3.9070   -5.2960    0.4330 hc        1 CLR      0.036033
     52 H182       -3.7950   -4.7950   -1.3080 hc        1 CLR      0.036033
     53 H183       -2.4390   -4.4270   -0.1730 hc        1 CLR      0.036033
     54 H191        1.5030   -2.5000    0.4700 hc        1 CLR      0.037700
     55 H192        0.3670   -2.4650   -0.9340 hc        1 CLR      0.037700
     56 H193       -0.0240   -3.4730    0.5240 hc        1 CLR      0.037700
     57 H20        -5.9790   -5.2910   -0.7570 hc        1 CLR      0.050700
     58 H211       -6.9450   -4.2170   -2.9320 hc        1 CLR      0.033700
     59 H212       -5.1950   -3.9350   -2.5880 hc        1 CLR      0.033700
     60 H213       -6.4040   -2.6250   -2.2580 hc        1 CLR      0.033700
     61 H221       -8.4450   -3.4590   -0.9220 hc        1 CLR      0.041700
     62 H222       -8.0970   -4.3850    0.5850 hc        1 CLR      0.041700
     63 H231       -8.3610   -5.6280   -2.2350 hc        1 CLR      0.040200
     64 H232       -8.0250   -6.5230   -0.7040 hc        1 CLR      0.040200
     65 H241      -10.1780   -5.6570    0.2710 hc        1 CLR      0.039700
     66 H242      -10.5280   -4.7840   -1.2710 hc        1 CLR      0.039700
     67 H25        -9.9860   -7.8210   -1.1690 hc        1 CLR      0.045700
     68 H261      -12.4790   -8.1050   -1.1630 hc        1 CLR      0.033200
     69 H262      -11.8770   -7.3240    0.3580 hc        1 CLR      0.033200
     70 H263      -12.6840   -6.3210   -0.9180 hc        1 CLR      0.033200
     71 H271      -11.4830   -6.0000   -3.1790 hc        1 CLR      0.033200
     72 H272       -9.8350   -6.7180   -3.4030 hc        1 CLR      0.033200
     73 H273      -11.2860   -7.7970   -3.2970 hc        1 CLR      0.033200
     74 H1          3.4200    1.5790    1.4190 ho        1 CLR      0.399000
@<TRIPOS>BOND
     1    1    2 1
     2    1   10 1
     3    1   29 1
     4    1   30 1
     5    2    3 1
     6    2   31 1
     7    2   32 1
     8    3    4 1
     9    3   28 1
    10    3   33 1
    11    4    5 1
    12    4   34 1
    13    4   35 1
    14    5    6 2
    15    5   10 1
    16    6    7 1
    17    6   36 1
    18    7    8 1
    19    7   37 1
    20    7   38 1
    21    8    9 1
    22    8   14 1
    23    8   39 1
    24    9   10 1
    25    9   11 1
    26    9   40 1
    27   10   19 1
    28   11   12 1
    29   11   41 1
    30   11   42 1
    31   12   13 1
    32   12   43 1
    33   12   44 1
    34   13   14 1
    35   13   17 1
    36   13   18 1
    37   14   15 1
    38   14   45 1
    39   15   16 1
    40   15   46 1
    41   15   47 1
    42   16   17 1
    43   16   48 1
    44   16   49 1
    45   17   20 1
    46   17   50 1
    47   18   51 1
    48   18   52 1
    49   18   53 1
    50   19   54 1
    51   19   55 1
    52   19   56 1
    53   20   21 1
    54   20   22 1
    55   20   57 1
    56   21   58 1
    57   21   59 1
    58   21   60 1
    59   22   23 1
    60   22   61 1
    61   22   62 1
    62   23   24 1
    63   23   63 1
    64   23   64 1
    65   24   25 1
    66   24   65 1
    67   24   66 1
    68   25   26 1
    69   25   27 1
    70   25   67 1
    71   26   68 1
    72   26   69 1
    73   26   70 1
    74   27   71 1
    75   27   72 1
    76   27   73 1
    77   28   74 1
@<TRIPOS>SUBSTRUCTURE
     1 CLR         1 TEMP              0 ****  ****    0 ROOT
