@<TRIPOS>MOLECULE
CLS
   41    43     1     0     0
SMALL
bcc


@<TRIPOS>ATOM
      1 S1           0.0000     0.0000     0.0000 ss         1 CLS      -0.442200
      2 C2           1.7990     0.0000     0.0000 c3         1 CLS       0.177900
      3 C3           2.3830     0.0000     1.3730 c2         1 CLS      -0.234400
      4 C3'          3.7870     0.5320     1.4970 c3         1 CLS       0.270600
      5 O20          4.3050     0.8470     0.1780 os         1 CLS      -0.461900
      6 C21          5.5770     1.2450     0.0330 c          1 CLS       0.687100
      7 O22          6.3200     1.2550     0.9870 o          1 CLS      -0.576000
      8 C23          6.0830     1.6800    -1.3190 c3         1 CLS      -0.043100
      9 C4           1.8120    -0.4100     2.4980 ce         1 CLS      -0.104600
     10 C4'          2.5570    -0.3770     3.7690 c          1 CLS       0.966800
     11 O4A          3.7820     0.1860     3.8170 o          1 CLS      -0.846800
     12 O4B          2.0690    -0.8560     4.7730 o          1 CLS      -0.846800
     13 N5           0.4910    -0.8770     2.4640 nj         1 CLS       0.010000
     14 C6          -0.2880    -1.2800     1.2620 cy         1 CLS       0.061800
     15 C7          -1.5640    -1.1410     2.0730 cy         1 CLS      -0.074300
     16 C8          -0.5830    -1.0620     3.2200 c          1 CLS       0.609500
     17 O9          -0.7290    -1.1400     4.4210 o          1 CLS      -0.570500
     18 N10         -2.3070     0.0970     1.8250 ns         1 CLS      -0.145900
     19 C11         -3.6480     0.1160     1.9550 c          1 CLS       0.565100
     20 O12         -4.2400    -0.8920     2.2790 o          1 CLS      -0.640100
     21 C13         -4.4130     1.3880     1.7000 c3         1 CLS       0.012900
     22 C14         -5.8840     1.1420     1.9140 cc         1 CLS       0.093600
     23 C15         -6.6140     1.2640     3.0490 cd         1 CLS      -0.145000
     24 C16         -7.9670     0.9860     3.0100 cd         1 CLS      -0.135000
     25 C17         -8.5220     0.5890     1.8390 cc         1 CLS       0.023900
     26 S19         -7.1170     0.6090     0.7390 ss         1 CLS      -0.334800
     27 H21          2.1460    -0.8820    -0.5240 h1         1 CLS       0.052700
     28 H22          2.1460     0.8820    -0.5240 h1         1 CLS       0.052700
     29 H3'1         4.4170    -0.2160     1.9630 h1         1 CLS       0.074200
     30 H3'2         3.7800     1.4280     2.1060 h1         1 CLS       0.074200
     31 H231         5.5010     2.5230    -1.6690 hc         1 CLS       0.017033
     32 H232         7.1250     1.9680    -1.2400 hc         1 CLS       0.017033
     33 H233         5.9880     0.8600    -2.0210 hc         1 CLS       0.017033
     34 H6          -0.0790    -2.2920     0.9390 h2         1 CLS       0.069700
     35 H7          -2.1630    -2.0440     2.0850 h1         1 CLS       0.091700
     36 H10         -1.8160     0.9350     1.5840 hn         1 CLS       0.199500
     37 H131        -4.2450     1.7110     0.6800 hc         1 CLS       0.037200
     38 H132        -4.0720     2.1570     2.3830 hc         1 CLS       0.037200
     39 H15         -6.1450     1.5820     3.9730 ha         1 CLS       0.118000
     40 H16         -8.5740     1.0770     3.9030 ha         1 CLS       0.107000
     41 H17         -9.5520     0.3310     1.6250 h4         1 CLS       0.155000
@<TRIPOS>BOND
     1     1     2 1   
     2     1    14 1   
     3     2     3 1   
     4     2    27 1   
     5     2    28 1   
     6     3     4 1   
     7     3     9 2   
     8     4     5 1   
     9     4    29 1   
    10     4    30 1   
    11     5     6 1   
    12     6     7 2   
    13     6     8 1   
    14     8    31 1   
    15     8    32 1   
    16     8    33 1   
    17     9    10 1   
    18     9    13 1   
    19    10    11 1   
    20    10    12 1   
    21    13    14 1   
    22    13    16 1   
    23    14    15 1   
    24    14    34 1   
    25    15    16 1   
    26    15    18 1   
    27    15    35 1   
    28    16    17 2   
    29    18    19 1   
    30    18    36 1   
    31    19    20 2   
    32    19    21 1   
    33    21    22 1   
    34    21    37 1   
    35    21    38 1   
    36    22    23 2   
    37    22    26 1   
    38    23    24 1   
    39    23    39 1   
    40    24    25 2   
    41    24    40 1   
    42    25    26 1   
    43    25    41 1   
@<TRIPOS>SUBSTRUCTURE
     1 CLS         1 TEMP              0 ****  ****    0 ROOT
