@<TRIPOS>MOLECULE
molecule
   23    23     1     0     0
SMALL
bcc


@<TRIPOS>ATOM
      1 CA           0.0000     0.0000     0.0000 c3         1 CLT      -0.184400
      2 CB1          1.5300     0.0000     0.0000 c3         1 CLT      -0.058400
      3 CG           2.0390     0.0000     1.4430 c3         1 CLT      -0.051100
      4 CD           3.5460     0.0000     1.4420 ca         1 CLT      -0.053300
      5 CE1          4.2370     1.1970     1.4420 ca         1 CLT      -0.127500
      6 CE2          4.2370    -1.1970     1.4480 ca         1 CLT      -0.127500
      7 CZ1          5.6200     1.1970     1.4430 ca         1 CLT      -0.132500
      8 CZ2          5.6190    -1.1970     1.4440 ca         1 CLT      -0.132500
      9 CH           6.3110    -0.0000     1.4430 ca         1 CLT      -0.151000
     10 CB2         -0.5030    -0.0020    -1.4200 c          1 CLT       0.891600
     11 OG1          0.2820    -0.0010    -2.3380 o          1 CLT      -0.855800
     12 OG2         -1.8220    -0.0010    -1.6650 o          1 CLT      -0.855800
     13 HA1         -0.3610     0.8850     0.5100 hc         1 CLT       0.026700
     14 HA2         -0.3610    -0.8840     0.5120 hc         1 CLT       0.026700
     15 HB11         1.8910     0.8850    -0.5100 hc         1 CLT       0.050700
     16 HB12         1.8910    -0.8850    -0.5100 hc         1 CLT       0.050700
     17 HG1          1.6780    -0.8850     1.9530 hc         1 CLT       0.037700
     18 HG2          1.6780     0.8840     1.9530 hc         1 CLT       0.037700
     19 HE1          3.6950     2.1350     1.4420 ha         1 CLT       0.131000
     20 HE2          3.6960    -2.1350     1.4490 ha         1 CLT       0.131000
     21 HZ1          6.1610     2.1350     1.4420 ha         1 CLT       0.116000
     22 HZ2          6.1610    -2.1350     1.4460 ha         1 CLT       0.116000
     23 HH           7.3940    -0.0010     1.4420 ha         1 CLT       0.113000
@<TRIPOS>BOND
     1     1     2 1
     2     1    10 1
     3     1    13 1
     4     1    14 1
     5     2     3 1
     6     2    15 1
     7     2    16 1
     8     3     4 1
     9     3    17 1
    10     3    18 1
    11     4     5 ar
    12     4     6 ar
    13     5     7 ar
    14     5    19 1
    15     6     8 ar
    16     6    20 1
    17     7     9 ar
    18     7    21 1
    19     8     9 ar
    20     8    22 1
    21     9    23 1
    22    10    11 1
    23    10    12 1
@<TRIPOS>SUBSTRUCTURE
     1 CLT         1 TEMP              0 ****  ****    0 ROOT
