@<TRIPOS>MOLECULE
CLT
   23    23     1     0     0
SMALL
bcc


@<TRIPOS>ATOM
      1 CA         -0.0200    0.0810    0.0190 c3        1 CLT     -0.197400
      2 CB1         1.4890    0.0460   -0.0080 c3        1 CLT     -0.062400
      3 CG          2.0650   -0.1260    1.3860 c3        1 CLT     -0.047100
      4 CD          3.5530   -0.1480    1.3960 ca        1 CLT     -0.049300
      5 CE1         4.2800    0.9620    0.9430 ca        1 CLT     -0.131500
      6 CE2         4.2490   -1.2660    1.8730 ca        1 CLT     -0.131500
      7 CZ1         5.6730    0.9520    0.9700 ca        1 CLT     -0.136000
      8 CZ2         5.6430   -1.2740    1.8990 ca        1 CLT     -0.136000
      9 CH          6.3580   -0.1650    1.4490 ca        1 CLT     -0.153000
     10 CB2        -0.5930    0.5510   -1.3300 c         1 CLT      0.909600
     11 OG1        -0.0810    1.5690   -1.8800 o         1 CLT     -0.850800
     12 OG2        -1.5670   -0.0960   -1.8120 o         1 CLT     -0.850800
     13 HA1        -0.3730    0.7970    0.8040 hc        1 CLT      0.019700
     14 HA2        -0.4300   -0.9300    0.2660 hc        1 CLT      0.019700
     15 HB11        1.8340   -0.7950   -0.6640 hc        1 CLT      0.049200
     16 HB12        1.8630    1.0010   -0.4670 hc        1 CLT      0.049200
     17 HG1         1.7150    0.7230    2.0340 hc        1 CLT      0.038200
     18 HG2         1.6640   -1.0730    1.8360 hc        1 CLT      0.038200
     19 HE1         3.7390    1.8380    0.5550 ha        1 CLT      0.136500
     20 HE2         3.6900   -2.1460    2.2230 ha        1 CLT      0.136500
     21 HZ1         6.2330    1.8250    0.6070 ha        1 CLT      0.117500
     22 HZ2         6.1780   -2.1580    2.2730 ha        1 CLT      0.117500
     23 HH          7.4570   -0.1720    1.4680 ha        1 CLT      0.115000
@<TRIPOS>BOND
     1    1    2 1   
     2    1   10 1   
     3    1   13 1   
     4    1   14 1   
     5    2    3 1   
     6    2   15 1   
     7    2   16 1   
     8    3    4 1   
     9    3   17 1   
    10    3   18 1   
    11    4    5 ar  
    12    4    6 ar  
    13    5    7 ar  
    14    5   19 1   
    15    6    8 ar  
    16    6   20 1   
    17    7    9 ar  
    18    7   21 1   
    19    8    9 ar  
    20    8   22 1   
    21    9   23 1   
    22   10   11 1   
    23   10   12 1   
@<TRIPOS>SUBSTRUCTURE
     1 CLT         1 TEMP              0 ****  ****    0 ROOT
