@<TRIPOS>MOLECULE
CLU
   23    24     1     0     0
SMALL
bcc


@<TRIPOS>ATOM
      1 Cl1          0.0000     0.0000     0.0000 cl         1 CLU      -0.019400
      2 CAM          4.0150     0.0000     0.0000 ca         1 CLU      -0.077600
      3 CAE          4.3040     0.0000     1.3510 ca         1 CLU      -0.081000
      4 CAC          3.2800    -0.0010     2.2800 ca         1 CLU      -0.123000
      5 CAD          1.9600    -0.0010     1.8650 ca         1 CLU      -0.081000
      6 CAN          2.6850     0.0000    -0.4260 ca         1 CLU       0.186400
      7 CAL          1.6560     0.0000     0.5180 ca         1 CLU      -0.077600
      8 Cl2          5.3020     0.0070    -1.1650 cl         1 CLU      -0.019400
      9 NAJ          2.3920     0.0010    -1.7650 ne         1 CLU      -0.692100
     10 CAK          2.2500    -1.1360    -2.4060 c2         1 CLU       0.598100
     11 NAI          2.3750    -2.3590    -1.8120 nu         1 CLU      -0.514200
     12 CAG          2.1550    -3.4060    -2.8190 c3         1 CLU       0.143300
     13 CAF          1.8770    -2.6360    -4.1220 c3         1 CLU       0.143300
     14 NAH          1.9580    -1.2200    -3.7380 nu         1 CLU      -0.514200
     15 HAE          5.3350    -0.0000     1.6830 ha         1 CLU       0.111000
     16 HAC          3.5130    -0.0020     3.3380 ha         1 CLU       0.107000
     17 HAD          1.1630    -0.0020     2.5990 ha         1 CLU       0.111000
     18 HNAI         2.5820    -2.5160    -0.8460 hn         1 CLU       0.334300
     19 HAG1         3.1010    -3.9170    -2.9520 h1         1 CLU       0.031950
     20 HAG2         1.2360    -3.9120    -2.5510 h1         1 CLU       0.031950
     21 HAF1         2.7120    -2.8290    -4.7850 h1         1 CLU       0.031950
     22 HAF2         0.8450    -2.8310    -4.3880 h1         1 CLU       0.031950
     23 HNAH         1.8260    -0.4430    -4.3540 hn         1 CLU       0.334300
@<TRIPOS>BOND
     1     1     7 1   
     2     2     3 ar  
     3     2     6 ar  
     4     2     8 1   
     5     3     4 ar  
     6     3    15 1   
     7     4     5 ar  
     8     4    16 1   
     9     5     7 ar  
    10     5    17 1   
    11     6     7 ar  
    12     6     9 1   
    13     9    10 2   
    14    10    11 1   
    15    10    14 1   
    16    11    12 1   
    17    11    18 1   
    18    12    13 1   
    19    12    19 1   
    20    12    20 1   
    21    13    14 1   
    22    13    21 1   
    23    13    22 1   
    24    14    23 1   
@<TRIPOS>SUBSTRUCTURE
     1 CLU         1 TEMP              0 ****  ****    0 ROOT
