@<TRIPOS>MOLECULE
CLW
   15    16     1     0     0
SMALL
bcc


@<TRIPOS>ATOM
      1 C1          0.0080   -0.0070   -0.0080 ca        1 CLW     -0.126000
      2 C2          1.4110   -0.0020   -0.0220 ca        1 CLW     -0.088000
      3 C3          2.0420    0.0140    1.2040 ca        1 CLW      0.047100
      4 C4          1.3230    0.0250    2.4470 ca        1 CLW     -0.004400
      5 C5         -0.0650    0.0200    2.4510 ca        1 CLW     -0.121000
      6 C6         -0.7010    0.0030    1.1960 ca        1 CLW      0.024400
      7 CL1        -2.4010   -0.0060    1.1570 cl        1 CLW     -0.080400
      8 O1          3.4210    0.0190    1.4640 os        1 CLW     -0.290200
      9 C7          3.5560    0.0180    2.8740 c         1 CLW      0.811600
     10 N1          2.2820    0.0790    3.4770 n         1 CLW     -0.453100
     11 O2          4.6890    0.0060    3.3410 o         1 CLW     -0.564500
     12 H11        -0.5350   -0.0190   -0.9660 ha        1 CLW      0.157000
     13 H21         1.9760   -0.0080   -0.9640 ha        1 CLW      0.166000
     14 H51        -0.6450    0.0320    3.3830 ha        1 CLW      0.162000
     15 HN11        2.1120   -0.1700    4.4170 hn        1 CLW      0.358500
@<TRIPOS>BOND
     1    1    2 ar  
     2    1    6 ar  
     3    1   12 1   
     4    2    3 ar  
     5    2   13 1   
     6    3    4 ar  
     7    3    8 1   
     8    4    5 ar  
     9    4   10 1   
    10    5    6 ar  
    11    5   14 1   
    12    6    7 1   
    13    8    9 1   
    14    9   10 1   
    15    9   11 2   
    16   10   15 1   
@<TRIPOS>SUBSTRUCTURE
     1 CLW         1 TEMP              0 ****  ****    0 ROOT
