@<TRIPOS>MOLECULE
molecule
    7     6     1     0     0
SMALL
bcc


@<TRIPOS>ATOM
      1 C1           0.0000     0.0000     0.0000 c3         1 CLX       0.142200
      2 C            1.5070     0.0000     0.0000 c          1 CLX       0.570900
      3 O            2.1100     0.0000     1.0460 o          1 CLX      -0.451100
      4 Cl1         -0.6010     1.4720    -0.8500 cl         1 CLX      -0.101400
      5 Cl2         -0.6020     0.0000     1.6990 cl         1 CLX      -0.101400
      6 Cl3         -0.6010    -1.4720    -0.8500 cl         1 CLX      -0.101400
      7 H            2.0490    -0.0380    -0.9370 h4         1 CLX       0.043200
@<TRIPOS>BOND
     1     1     2 1
     2     1     4 1
     3     1     5 1
     4     1     6 1
     5     2     3 2
     6     2     7 1
@<TRIPOS>SUBSTRUCTURE
     1 CLX         1 TEMP              0 ****  ****    0 ROOT
