@<TRIPOS>MOLECULE
CLY
   60    61     1     0     0
SMALL
bcc


@<TRIPOS>ATOM
      1 O4           0.0000     0.0000     0.0000 oh         1 CLY      -0.560800
      2 C1           1.4290     0.0000     0.0000 c3         1 CLY       0.155100
      3 C2           1.9450     0.0000     1.4430 c3         1 CLY       0.145100
      4 C3           1.5570     1.3290     2.1000 c3         1 CLY       0.162100
      5 C4           2.0590     2.4820     1.2300 c3         1 CLY       0.140100
      6 O5           1.4460     2.4180    -0.0570 os         1 CLY      -0.347600
      7 C5           1.9410     1.2540    -0.7130 c3         1 CLY       0.224200
      8 O6           3.3660    -0.1430     1.4450 oh         1 CLY      -0.556800
      9 O7           2.1540     1.4130     3.3960 oh         1 CLY      -0.577800
     10 S1           1.3690     1.2430    -2.4340 ss         1 CLY      -0.375200
     11 C6           2.1090     2.7910    -3.0220 c3         1 CLY       0.113000
     12 C7           3.5780     2.3780     1.0740 c3         1 CLY      -0.069300
     13 C8           4.0790     3.5190     0.1880 c3         1 CLY       0.041700
     14 C9           5.5980     3.4160     0.0330 c3         1 CLY      -0.033100
     15 Cl1          3.6600     5.0990     0.9460 cl         1 CLY      -0.157400
     16 N1           4.2110     2.4700     2.3930 ns         1 CLY      -0.153900
     17 C10          5.3770     1.8390     2.6260 c          1 CLY       0.581100
     18 O8           5.9040     1.1940     1.7440 o          1 CLY      -0.634100
     19 C11          6.0290     1.9340     3.9810 c3         1 CLY       0.046500
     20 C12          6.9800     3.1440     4.0230 c3         1 CLY      -0.026400
     21 C13          8.3710     2.5530     4.3470 c3         1 CLY      -0.052700
     22 C14          8.0300     1.1960     5.0110 c3         1 CLY       0.137800
     23 N2           6.8470     0.7300     4.2370 n3         1 CLY      -0.487600
     24 C15          6.0660    -0.1300     5.1350 c3         1 CLY       0.168100
     25 C16          9.1290     3.4570     5.3220 c3         1 CLY      -0.023400
     26 C17         10.4740     2.8170     5.6700 c3         1 CLY      -0.033400
     27 C18         11.2310     3.7200     6.6450 c3         1 CLY       0.005900
     28 HO4         -0.3140    -0.7860    -0.4150 ho         1 CLY       0.395000
     29 H1           1.7960    -0.8810    -0.5130 h1         1 CLY       0.023700
     30 H2           1.4920    -0.8190     1.9890 h1         1 CLY       0.014700
     31 H3           0.4790     1.3860     2.1880 h1         1 CLY       0.035700
     32 H4           1.8050     3.4230     1.7010 h1         1 CLY       0.058700
     33 H5           3.0240     1.2630    -0.6890 h2         1 CLY       0.072700
     34 HO6          3.5900    -1.0570     1.5030 ho         1 CLY       0.395000
     35 HO7          1.4790     1.3860     4.0550 ho         1 CLY       0.388000
     36 H61          1.7760     3.6100    -2.3970 h1         1 CLY       0.037033
     37 H62          1.8040     2.9700    -4.0460 h1         1 CLY       0.037033
     38 H63          3.1880     2.7150    -2.9740 h1         1 CLY       0.037033
     39 H7           3.8310     1.4280     0.6180 h1         1 CLY       0.126700
     40 H8           3.6120     3.4510    -0.7870 h1         1 CLY       0.045700
     41 H91          5.9170     4.0210    -0.8070 hc         1 CLY       0.027700
     42 H92          5.8740     2.3820    -0.1420 hc         1 CLY       0.027700
     43 H93          6.0790     3.7700     0.9360 hc         1 CLY       0.027700
     44 HN1          3.8050     3.0490     3.1020 hn         1 CLY       0.182500
     45 H11          5.2740     2.0350     4.7520 h1         1 CLY       0.027700
     46 H121         6.6750     3.8340     4.8000 hc         1 CLY       0.024200
     47 H122         6.9990     3.6390     3.0590 hc         1 CLY       0.024200
     48 H13          8.9390     2.3990     3.4380 hc         1 CLY       0.048700
     49 H141         8.8540     0.5010     4.9030 h1         1 CLY       0.020200
     50 H142         7.7710     1.3360     6.0530 h1         1 CLY       0.020200
     51 H151         5.2380    -0.5640     4.5880 h1         1 CLY       0.002700
     52 H152         6.6990    -0.9210     5.5190 h1         1 CLY       0.002700
     53 H153         5.6850     0.4600     5.9590 h1         1 CLY       0.002700
     54 H161         8.5450     3.5850     6.2250 hc         1 CLY       0.015700
     55 H162         9.2970     4.4230     4.8610 hc         1 CLY       0.015700
     56 H171        10.3060     1.8500     6.1300 hc         1 CLY       0.016200
     57 H172        11.0590     2.6900     4.7670 hc         1 CLY       0.016200
     58 H181        11.3500     4.7040     6.2080 hc         1 CLY       0.000367
     59 H182        10.6720     3.8020     7.5700 hc         1 CLY       0.000367
     60 H183        12.2060     3.2950     6.8490 hc         1 CLY       0.000367
@<TRIPOS>BOND
     1     1     2 1   
     2     1    28 1   
     3     2     3 1   
     4     2     7 1   
     5     2    29 1   
     6     3     4 1   
     7     3     8 1   
     8     3    30 1   
     9     4     5 1   
    10     4     9 1   
    11     4    31 1   
    12     5     6 1   
    13     5    12 1   
    14     5    32 1   
    15     6     7 1   
    16     7    10 1   
    17     7    33 1   
    18     8    34 1   
    19     9    35 1   
    20    10    11 1   
    21    11    36 1   
    22    11    37 1   
    23    11    38 1   
    24    12    13 1   
    25    12    16 1   
    26    12    39 1   
    27    13    14 1   
    28    13    15 1   
    29    13    40 1   
    30    14    41 1   
    31    14    42 1   
    32    14    43 1   
    33    16    17 1   
    34    16    44 1   
    35    17    18 2   
    36    17    19 1   
    37    19    20 1   
    38    19    23 1   
    39    19    45 1   
    40    20    21 1   
    41    20    46 1   
    42    20    47 1   
    43    21    22 1   
    44    21    25 1   
    45    21    48 1   
    46    22    23 1   
    47    22    49 1   
    48    22    50 1   
    49    23    24 1   
    50    24    51 1   
    51    24    52 1   
    52    24    53 1   
    53    25    26 1   
    54    25    54 1   
    55    25    55 1   
    56    26    27 1   
    57    26    56 1   
    58    26    57 1   
    59    27    58 1   
    60    27    59 1   
    61    27    60 1   
@<TRIPOS>SUBSTRUCTURE
     1 CLY         1 TEMP              0 ****  ****    0 ROOT
