@<TRIPOS>MOLECULE
CLZ
   24    25     1     0     0
SMALL
bcc


@<TRIPOS>ATOM
      1 C1         -0.0400   -0.2480   -0.0510 c2        1 CLZ      0.246000
      2 N2          1.3110   -0.1080   -0.1080 n2        1 CLZ     -0.308000
      3 C3          1.9870    0.1060    1.0920 c2        1 CLZ      0.215000
      4 N4          1.4130    0.0520    2.3430 n2        1 CLZ     -0.280000
      5 N5         -0.6710   -0.7830   -1.1430 nh        1 CLZ     -0.303000
      6 N6          3.3450    0.3990    1.0070 nh        1 CLZ     -0.328000
      7 C7         -2.7950    0.0590    2.6000 ca        1 CLZ      0.031000
      8 C8         -2.1460    0.2120    1.3760 ca        1 CLZ     -0.188000
      9 C9         -0.7660    0.0060    1.2010 ca        1 CLZ     -0.166000
     10 C10         0.0530    0.0010    2.3790 ca        1 CLZ      0.092000
     11 C11        -0.6040   -0.0780    3.6590 ca        1 CLZ     -0.075000
     12 C12        -1.9640   -0.0970    3.7580 ca        1 CLZ     -0.144000
     13 N13        -4.1910    0.1810    2.7160 nh        1 CLZ     -0.334000
     14 CL         -3.2270    0.8570    0.0920 cl        1 CLZ      0.959000
     15 O1         -2.1530    1.5670   -1.0420 o         1 CLZ     -0.532500
     16 O2         -3.6580   -0.5760   -0.7550 o         1 CLZ     -0.532500
     17 H51        -1.6610   -0.6890   -1.2300 hn        1 CLZ      0.243500
     18 H52        -0.1690   -0.8120   -2.0030 hn        1 CLZ      0.243500
     19 H61         3.8030    0.2130    0.1460 hn        1 CLZ      0.230500
     20 H62         3.8840    0.3150    1.8370 hn        1 CLZ      0.230500
     21 H11         0.0230   -0.1380    4.5660 ha        1 CLZ      0.164000
     22 H12        -2.4450   -0.2020    4.7440 ha        1 CLZ      0.147000
     23 H131       -4.5050    0.1670    3.6640 hn        1 CLZ      0.194000
     24 H132       -4.6850   -0.4860    2.1550 hn        1 CLZ      0.194000
@<TRIPOS>BOND
     1    1    2 1
     2    1    5 1
     3    1    9 1
     4    2    3 1
     5    3    4 1
     6    3    6 1
     7    4   10 1
     8    5   17 1
     9    5   18 1
    10    6   19 1
    11    6   20 1
    12    7    8 1
    13    7   12 1
    14    7   13 1
    15    8    9 1
    16    8   14 1
    17    9   10 1
    18   10   11 1
    19   11   12 1
    20   11   21 1
    21   12   22 1
    22   13   23 1
    23   13   24 1
    24   14   15 1
    25   14   16 1
@<TRIPOS>SUBSTRUCTURE
     1 CLZ         1 TEMP              0 ****  ****    0 ROOT
