@<TRIPOS>MOLECULE
CM
    7     6     1     0     0
SMALL
bcc


@<TRIPOS>ATOM
      1 C1         -0.0310    0.0000   -0.0200 c         1 CM       0.901600
      2 C2          1.4970   -0.0000   -0.0080 c3        1 CM      -0.200100
      3 O1         -0.6420   -0.0050    1.0890 o         1 CM      -0.861300
      4 O2         -0.6200    0.0050   -1.1410 o         1 CM      -0.861300
      5 H21         1.8830   -0.0010    1.0370 hc        1 CM       0.007033
      6 H22         1.8750    0.9050   -0.5370 hc        1 CM       0.007033
      7 H23         1.8740   -0.9050   -0.5380 hc        1 CM       0.007033
@<TRIPOS>BOND
     1    1    2 1   
     2    1    3 1   
     3    1    4 1   
     4    2    5 1   
     5    2    6 1   
     6    2    7 1   
@<TRIPOS>SUBSTRUCTURE
     1 CM          1 TEMP              0 ****  ****    0 ROOT
