@<TRIPOS>MOLECULE
molecule
    7     6     1     0     0
SMALL
bcc


@<TRIPOS>ATOM
      1 C1           0.0000     0.0000     0.0000 c          1 CM        0.887600
      2 C2           1.5070     0.0000     0.0000 c3         1 CM       -0.194100
      3 O1          -0.6040     0.0000     1.0460 o          1 CM       -0.863800
      4 O2          -0.6710     0.0000    -1.1630 o          1 CM       -0.863800
      5 H21          1.8680     0.0000     1.0210 hc         1 CM        0.011367
      6 H22          1.8680     0.8850    -0.5110 hc         1 CM        0.011367
      7 H23          1.8680    -0.8850    -0.5110 hc         1 CM        0.011367
@<TRIPOS>BOND
     1     1     2 1
     2     1     3 1
     3     1     4 1
     4     2     5 1
     5     2     6 1
     6     2     7 1
@<TRIPOS>SUBSTRUCTURE
     1 CM          1 TEMP              0 ****  ****    0 ROOT
