@<TRIPOS>MOLECULE
CM3
   67    71     1     0     0
SMALL
bcc


@<TRIPOS>ATOM
      1 C1           0.0000     0.0000     0.0000 c3         1 CM3      -0.022400
      2 C2           1.5330     0.0000     0.0000 c3         1 CM3       0.236400
      3 O3           1.9950     0.0000     1.3420 os         1 CM3      -0.270900
      4 C4           1.5490     1.0970     2.0000 ca         1 CM3       0.156100
      5 C5           2.3080     1.5330     3.0870 ca         1 CM3      -0.134000
      6 C6           1.9200     2.6340     3.8210 ca         1 CM3      -0.093000
      7 C7           0.7640     3.3210     3.4800 ca         1 CM3       0.064100
      8 O8           0.3750     4.4050     4.2030 oh         1 CM3      -0.482100
      9 C9           0.0100     2.8950     2.3970 ca         1 CM3       0.110900
     10 F10         -1.1140     3.5630     2.0610 f          1 CM3      -0.118900
     11 C11          0.4030     1.7890     1.6590 ca         1 CM3      -0.179300
     12 C12         -0.4540     1.3820     0.4840 c3         1 CM3       0.018600
     13 C13         -0.2910     2.4000    -0.6460 c3         1 CM3      -0.003100
     14 C14         -0.5140    -1.0660     0.9340 ca         1 CM3      -0.098300
     15 C15         -0.6050    -0.8070     2.2890 ca         1 CM3      -0.089500
     16 C16         -1.0800    -1.7800     3.1480 ca         1 CM3      -0.136500
     17 C17         -1.4560    -3.0190     2.6500 ca         1 CM3       0.120100
     18 O18         -1.9190    -3.9790     3.4930 oh         1 CM3      -0.502100
     19 C19         -1.3590    -3.2770     1.2910 ca         1 CM3      -0.136500
     20 C20         -0.8880    -2.2990     0.4370 ca         1 CM3      -0.089500
     21 C21          2.0390    -1.2320    -0.7070 ca         1 CM3      -0.154300
     22 C22          2.2750    -2.3890     0.0090 ca         1 CM3      -0.040500
     23 C23          2.7320    -3.5210    -0.6370 ca         1 CM3      -0.186500
     24 C24          2.9640    -3.4920    -2.0040 ca         1 CM3       0.139100
     25 C25          2.7310    -2.3260    -2.7200 ca         1 CM3      -0.186500
     26 C26          2.2690    -1.1990    -2.0690 ca         1 CM3      -0.040500
     27 O27          3.4200    -4.6020    -2.6420 os         1 CM3      -0.258900
     28 C28          3.5590    -5.6210    -1.6490 c3         1 CM3       0.163400
     29 C29          4.0710    -6.9050    -2.3040 c3         1 CM3       0.129800
     30 N30          5.3750    -6.6490    -2.9280 n3         1 CM3      -0.504600
     31 C31          6.3100    -6.3440    -1.8420 c3         1 CM3       0.133300
     32 C32          7.7010    -6.0720    -2.4170 c3         1 CM3      -0.023400
     33 C33          8.2000    -7.3250    -3.1440 c3         1 CM3      -0.027400
     34 C34          7.1700    -7.7280    -4.2030 c3         1 CM3      -0.023400
     35 C35          5.8070    -7.9130    -3.5350 c3         1 CM3       0.133300
     36 H1          -0.3670    -0.1750    -1.0040 hc         1 CM3       0.052700
     37 H2           1.8940     0.8880    -0.5060 h1         1 CM3       0.029700
     38 H5           3.2120     1.0000     3.3580 ha         1 CM3       0.123000
     39 H6           2.4950     2.9380     4.6870 ha         1 CM3       0.119000
     40 HO8          0.8790     5.1570     3.9390 ho         1 CM3       0.402000
     41 H12         -1.4910     1.3350     0.7920 hc         1 CM3       0.053700
     42 H131         0.6590     2.9110    -0.5380 hc         1 CM3       0.011367
     43 H132        -1.0970     3.1220    -0.6010 hc         1 CM3       0.011367
     44 H133        -0.3180     1.8880    -1.6010 hc         1 CM3       0.011367
     45 H15         -0.3100     0.1600     2.6770 ha         1 CM3       0.123500
     46 H16         -1.1510    -1.5780     4.2100 ha         1 CM3       0.113500
     47 H18         -2.8550    -3.9030     3.5730 ho         1 CM3       0.402000
     48 H19         -1.6520    -4.2430     0.9000 ha         1 CM3       0.113500
     49 H20         -0.8110    -2.5000    -0.6250 ha         1 CM3       0.123500
     50 H22          2.0930    -2.4120     1.0770 ha         1 CM3       0.113000
     51 H23          2.9150    -4.4290    -0.0760 ha         1 CM3       0.126000
     52 H25          2.9110    -2.3000    -3.7870 ha         1 CM3       0.126000
     53 H26          2.0870    -0.2880    -2.6270 ha         1 CM3       0.113000
     54 H281         4.2630    -5.2950    -0.8930 h1         1 CM3       0.017200
     55 H282         2.5960    -5.8090    -1.1880 h1         1 CM3       0.017200
     56 H291         3.3660    -7.2300    -3.0600 h1         1 CM3       0.019700
     57 H292         4.1760    -7.6770    -1.5520 h1         1 CM3       0.019700
     58 H311         6.3610    -7.1880    -1.1640 h1         1 CM3       0.011950
     59 H312         5.9650    -5.4670    -1.3070 h1         1 CM3       0.011950
     60 H321         7.6470    -5.2470    -3.1170 hc         1 CM3       0.020450
     61 H322         8.3830    -5.8270    -1.6120 hc         1 CM3       0.020450
     62 H331         9.1480    -7.1120    -3.6230 hc         1 CM3       0.012200
     63 H332         8.3210    -8.1320    -2.4310 hc         1 CM3       0.012200
     64 H341         7.1010    -6.9500    -4.9540 hc         1 CM3       0.020450
     65 H342         7.4740    -8.6590    -4.6660 hc         1 CM3       0.020450
     66 H351         5.8840    -8.6720    -2.7650 h1         1 CM3       0.011950
     67 H352         5.0810    -8.2200    -4.2780 h1         1 CM3       0.011950
@<TRIPOS>BOND
     1     1     2 1   
     2     1    12 1   
     3     1    14 1   
     4     1    36 1   
     5     2     3 1   
     6     2    21 1   
     7     2    37 1   
     8     3     4 1   
     9     4     5 ar  
    10     4    11 ar  
    11     5     6 ar  
    12     5    38 1   
    13     6     7 ar  
    14     6    39 1   
    15     7     8 1   
    16     7     9 ar  
    17     8    40 1   
    18     9    10 1   
    19     9    11 ar  
    20    11    12 1   
    21    12    13 1   
    22    12    41 1   
    23    13    42 1   
    24    13    43 1   
    25    13    44 1   
    26    14    15 ar  
    27    14    20 ar  
    28    15    16 ar  
    29    15    45 1   
    30    16    17 ar  
    31    16    46 1   
    32    17    18 1   
    33    17    19 ar  
    34    18    47 1   
    35    19    20 ar  
    36    19    48 1   
    37    20    49 1   
    38    21    22 ar  
    39    21    26 ar  
    40    22    23 ar  
    41    22    50 1   
    42    23    24 ar  
    43    23    51 1   
    44    24    25 ar  
    45    24    27 1   
    46    25    26 ar  
    47    25    52 1   
    48    26    53 1   
    49    27    28 1   
    50    28    29 1   
    51    28    54 1   
    52    28    55 1   
    53    29    30 1   
    54    29    56 1   
    55    29    57 1   
    56    30    31 1   
    57    30    35 1   
    58    31    32 1   
    59    31    58 1   
    60    31    59 1   
    61    32    33 1   
    62    32    60 1   
    63    32    61 1   
    64    33    34 1   
    65    33    62 1   
    66    33    63 1   
    67    34    35 1   
    68    34    64 1   
    69    34    65 1   
    70    35    66 1   
    71    35    67 1   
@<TRIPOS>SUBSTRUCTURE
     1 CM3         1 TEMP              0 ****  ****    0 ROOT
