@<TRIPOS>MOLECULE
molecule
   64    68     1     0     0
SMALL
bcc


@<TRIPOS>ATOM
      1 C1           0.0000     0.0000     0.0000 c3         1 CM4      -0.048400
      2 C2           1.5350     0.0000     0.0000 c3         1 CM4       0.195400
      3 O3           1.9960     0.0000     1.3410 os         1 CM4      -0.292900
      4 C4           1.5500     1.0970     2.0000 ca         1 CM4       0.122100
      5 C5           2.3090     1.5320     3.0880 ca         1 CM4      -0.143000
      6 C6           1.9210     2.6340     3.8200 ca         1 CM4      -0.124000
      7 C7           0.7650     3.3200     3.4770 ca         1 CM4       0.074100
      8 O8           0.3750     4.4050     4.1990 oh         1 CM4      -0.519100
      9 C9           0.0130     2.8950     2.3970 ca         1 CM4      -0.125000
     10 C10          0.4050     1.7890     1.6590 ca         1 CM4      -0.141300
     11 C11         -0.4520     1.3830     0.4830 c3         1 CM4      -0.021400
     12 C12         -0.2870     2.4010    -0.6460 c3         1 CM4      -0.088100
     13 C13         -0.5130    -1.0640     0.9340 ca         1 CM4      -0.086300
     14 C14         -0.8980    -2.2940     0.4340 ca         1 CM4      -0.108500
     15 C15         -1.3640    -3.2730     1.2900 ca         1 CM4      -0.155000
     16 C16         -1.4560    -3.0180     2.6500 ca         1 CM4       0.102100
     17 O17         -1.9200    -3.9780     3.4930 oh         1 CM4      -0.524100
     18 C18         -1.0750    -1.7810     3.1480 ca         1 CM4      -0.155000
     19 C19         -0.6040    -0.8070     2.2900 ca         1 CM4      -0.108500
     20 C20          2.0390    -1.2320    -0.7060 ca         1 CM4      -0.130300
     21 C21          2.2750    -2.3900     0.0090 ca         1 CM4      -0.071000
     22 C22          2.7320    -3.5210    -0.6370 ca         1 CM4      -0.194000
     23 C23          2.9640    -3.4930    -2.0040 ca         1 CM4       0.123100
     24 C24          2.7320    -2.3270    -2.7190 ca         1 CM4      -0.194000
     25 C25          2.2710    -1.2000    -2.0690 ca         1 CM4      -0.071000
     26 O26          3.4190    -4.6040    -2.6410 os         1 CM4      -0.299900
     27 C27          3.5570    -5.6210    -1.6490 c3         1 CM4       0.113400
     28 C28          4.0680    -6.9070    -2.3040 c3         1 CM4       0.134800
     29 N29          5.3730    -6.6520    -2.9290 n3         1 CM4      -0.678600
     30 C30          5.1430    -5.6680    -4.0060 c3         1 CM4       0.137300
     31 C31          6.0170    -6.1610    -5.1850 c3         1 CM4      -0.101400
     32 C32          5.8680    -7.7010    -5.0630 c3         1 CM4      -0.101400
     33 C33          5.8070    -7.9220    -3.5370 c3         1 CM4       0.137300
     34 H1          -0.3670    -0.1760    -1.0040 hc         1 CM4       0.074700
     35 H2           1.8960     0.8870    -0.5060 h1         1 CM4       0.060700
     36 H5           3.2130     0.9990     3.3590 ha         1 CM4       0.149000
     37 H6           2.4850     2.9270     4.6980 ha         1 CM4       0.144000
     38 HO8         -0.2080     4.1310     4.8880 ho         1 CM4       0.416000
     39 H9          -0.8890     3.4290     2.1270 ha         1 CM4       0.143000
     40 H11         -1.4900     1.3370     0.7900 hc         1 CM4       0.071700
     41 H121        -0.9350     3.2500    -0.4640 hc         1 CM4       0.040367
     42 H122         0.7430     2.7340    -0.6850 hc         1 CM4       0.040367
     43 H123        -0.5530     1.9400    -1.5900 hc         1 CM4       0.040367
     44 H14         -0.8260    -2.4940    -0.6280 ha         1 CM4       0.144500
     45 H15         -1.6660    -4.2370     0.8980 ha         1 CM4       0.139000
     46 H17         -2.8560    -3.8980     3.5750 ho         1 CM4       0.417000
     47 H18         -1.1460    -1.5790     4.2100 ha         1 CM4       0.139000
     48 H19         -0.3060     0.1600     2.6790 ha         1 CM4       0.144500
     49 H21          2.0940    -2.4120     1.0770 ha         1 CM4       0.142000
     50 H22          2.9150    -4.4290    -0.0750 ha         1 CM4       0.144500
     51 H24          2.9130    -2.3010    -3.7870 ha         1 CM4       0.144500
     52 H25          2.0900    -0.2890    -2.6270 ha         1 CM4       0.142000
     53 H271         4.2620    -5.2960    -0.8940 h1         1 CM4       0.051200
     54 H272         2.5950    -5.8090    -1.1880 h1         1 CM4       0.051200
     55 H281         3.3640    -7.2320    -3.0590 h1         1 CM4       0.045700
     56 H282         4.1730    -7.6780    -1.5510 h1         1 CM4       0.045700
     57 H301         4.0980    -5.6600    -4.2910 h1         1 CM4       0.053450
     58 H302         5.4620    -4.6820    -3.6890 h1         1 CM4       0.053450
     59 H311         5.6230    -5.8100    -6.1310 hc         1 CM4       0.049450
     60 H312         7.0500    -5.8620    -5.0510 hc         1 CM4       0.049450
     61 H321         4.9510    -8.0340    -5.5340 hc         1 CM4       0.049450
     62 H322         6.7300    -8.2020    -5.4870 hc         1 CM4       0.049450
     63 H331         5.0920    -8.7030    -3.3080 h1         1 CM4       0.053450
     64 H332         6.7880    -8.1920    -3.1650 h1         1 CM4       0.053450
@<TRIPOS>BOND
     1     1     2 1
     2     1    11 1
     3     1    13 1
     4     1    34 1
     5     2     3 1
     6     2    20 1
     7     2    35 1
     8     3     4 1
     9     4     5 ar
    10     4    10 ar
    11     5     6 ar
    12     5    36 1
    13     6     7 ar
    14     6    37 1
    15     7     8 1
    16     7     9 ar
    17     8    38 1
    18     9    10 ar
    19     9    39 1
    20    10    11 1
    21    11    12 1
    22    11    40 1
    23    12    41 1
    24    12    42 1
    25    12    43 1
    26    13    14 ar
    27    13    19 ar
    28    14    15 ar
    29    14    44 1
    30    15    16 ar
    31    15    45 1
    32    16    17 1
    33    16    18 ar
    34    17    46 1
    35    18    19 ar
    36    18    47 1
    37    19    48 1
    38    20    21 ar
    39    20    25 ar
    40    21    22 ar
    41    21    49 1
    42    22    23 ar
    43    22    50 1
    44    23    24 ar
    45    23    26 1
    46    24    25 ar
    47    24    51 1
    48    25    52 1
    49    26    27 1
    50    27    28 1
    51    27    53 1
    52    27    54 1
    53    28    29 1
    54    28    55 1
    55    28    56 1
    56    29    30 1
    57    29    33 1
    58    30    31 1
    59    30    57 1
    60    30    58 1
    61    31    32 1
    62    31    59 1
    63    31    60 1
    64    32    33 1
    65    32    61 1
    66    32    62 1
    67    33    63 1
    68    33    64 1
@<TRIPOS>SUBSTRUCTURE
     1 CM4         1 TEMP              0 ****  ****    0 ROOT
