@<TRIPOS>MOLECULE
CM5
   76    78     1     0     0
SMALL
bcc


@<TRIPOS>ATOM
      1 C7          0.2660   -0.4450   -0.2060 c3        1 CM5     -0.073400
      2 C8          1.7740   -0.4230   -0.0630 c3        1 CM5     -0.076400
      3 C9          2.1900   -0.0110    1.3340 c3        1 CM5     -0.076400
      4 C10         1.5460   -0.8990    2.3790 c3        1 CM5     -0.076400
      5 C11         0.0390   -0.9180    2.2340 c3        1 CM5     -0.073400
      6 C6         -0.3770   -1.3510    0.8360 c3        1 CM5     -0.063700
      7 C5         -1.8900   -1.3340    0.6770 c3        1 CM5     -0.076400
      8 C4         -2.5550   -2.4980    1.3780 c3        1 CM5     -0.078400
      9 C3         -4.0550   -2.4760    1.1680 c3        1 CM5     -0.078400
     10 C2         -4.7190   -3.6390    1.8730 c3        1 CM5     -0.084400
     11 C1         -6.2200   -3.6020    1.6500 c3        1 CM5      0.136400
     12 O12        -6.7560   -4.7320    2.3500 os        1 CM5     -0.423600
     13 C13        -8.1540   -4.8590    2.2280 c3        1 CM5      0.307900
     14 C18        -8.5480   -6.1810    2.9090 c3        1 CM5      0.086100
     15 O22        -8.1850   -7.2850    2.0990 oh        1 CM5     -0.604800
     16 C17       -10.0740   -6.2530    3.0840 c3        1 CM5      0.121100
     17 O21       -10.3910   -7.3600    3.9140 oh        1 CM5     -0.605800
     18 O14        -8.6470   -3.7480    2.9670 os        1 CM5     -0.446600
     19 C15       -10.0720   -3.7320    3.0470 c3        1 CM5      0.107100
     20 C19       -10.4270   -2.4460    3.7990 c3        1 CM5      0.140400
     21 O20        -9.8860   -1.3160    3.1520 oh        1 CM5     -0.594800
     22 C16       -10.5930   -4.9830    3.7830 c3        1 CM5      0.126100
     23 O23       -12.0170   -4.8980    3.6820 os        1 CM5     -0.431600
     24 C24       -12.7310   -5.7200    4.5860 c3        1 CM5      0.336900
     25 O25       -12.6420   -5.1090    5.8570 os        1 CM5     -0.449600
     26 C26       -13.2450   -3.8170    5.9760 c3        1 CM5      0.102100
     27 C30       -13.0930   -3.4260    7.4490 c3        1 CM5      0.140400
     28 O31       -11.7350   -3.2910    7.8030 oh        1 CM5     -0.595800
     29 C27       -14.7260   -3.8580    5.5690 c3        1 CM5      0.126100
     30 O32       -15.2150   -2.5300    5.6280 oh        1 CM5     -0.592800
     31 C28       -14.8340   -4.4150    4.1390 c3        1 CM5      0.066100
     32 O33       -16.2170   -4.4960    3.8300 oh        1 CM5     -0.607800
     33 C29       -14.1930   -5.8080    4.1050 c3        1 CM5      0.098100
     34 O34       -14.1930   -6.3380    2.7930 oh        1 CM5     -0.576800
     35 H71        -0.0060   -0.8040   -1.2330 hc        1 CM5      0.039450
     36 H72        -0.1390    0.5950   -0.0930 hc        1 CM5      0.039450
     37 H81         2.2090    0.2910   -0.8100 hc        1 CM5      0.038700
     38 H82         2.1860   -1.4410   -0.2900 hc        1 CM5      0.038700
     39 H91         1.8910    1.0550    1.5140 hc        1 CM5      0.038700
     40 H92         3.3060   -0.0690    1.4270 hc        1 CM5      0.038700
     41 H101        1.8180   -0.5320    3.4030 hc        1 CM5      0.038700
     42 H102        1.9450   -1.9430    2.2790 hc        1 CM5      0.038700
     43 H111       -0.3710    0.1050    2.4440 hc        1 CM5      0.039450
     44 H112       -0.4000   -1.6190    2.9910 hc        1 CM5      0.039450
     45 H6         -0.0080   -2.4020    0.6660 hc        1 CM5      0.047700
     46 H51        -2.1450   -1.3710   -0.4160 hc        1 CM5      0.040700
     47 H52        -2.2980   -0.3690    1.0780 hc        1 CM5      0.040700
     48 H41        -2.1360   -3.4640    0.9890 hc        1 CM5      0.042200
     49 H42        -2.3320   -2.4600    2.4770 hc        1 CM5      0.042200
     50 H31A       -4.4750   -1.5100    1.5550 hc        1 CM5      0.041200
     51 H32A       -4.2820   -2.5210    0.0700 hc        1 CM5      0.041200
     52 H21A       -4.3080   -4.6090    1.4920 hc        1 CM5      0.055200
     53 H22A       -4.5070   -3.5970    2.9740 hc        1 CM5      0.055200
     54 H11        -6.6710   -2.6620    2.0610 h1        1 CM5      0.038200
     55 H12        -6.4720   -3.6900    0.5590 h1        1 CM5      0.038200
     56 H13        -8.4960   -4.8120    1.1570 h2        1 CM5      0.055700
     57 H18        -8.0410   -6.2530    3.9120 h1        1 CM5      0.078700
     58 H22        -7.2240   -7.2500    2.0030 ho        1 CM5      0.424000
     59 H17       -10.5740   -6.3740    2.0830 h1        1 CM5      0.070700
     60 H21       -10.0390   -8.1440    3.4700 ho        1 CM5      0.425000
     61 H15       -10.5040   -3.7020    2.0080 h1        1 CM5      0.066700
     62 H191      -11.5400   -2.3000    3.7710 h1        1 CM5      0.063700
     63 H192      -10.0670   -2.5050    4.8600 h1        1 CM5      0.063700
     64 H20        -8.9250   -1.4250    3.1450 ho        1 CM5      0.412000
     65 H16       -10.2810   -4.9820    4.8620 h1        1 CM5      0.082700
     66 H24       -12.2690   -6.7390    4.7150 h2        1 CM5      0.126700
     67 H26       -12.6890   -3.0910    5.3200 h1        1 CM5      0.076700
     68 H301      -13.5950   -4.1880    8.1020 h1        1 CM5      0.062200
     69 H302      -13.5500   -2.4130    7.6080 h1        1 CM5      0.062200
     70 H31       -11.3140   -4.1450    7.6400 ho        1 CM5      0.410000
     71 H27       -15.3120   -4.5110    6.2730 h1        1 CM5      0.057700
     72 H32       -16.1130   -2.5570    5.2710 ho        1 CM5      0.422000
     73 H28       -14.3040   -3.7340    3.4170 h1        1 CM5      0.081700
     74 H33       -16.2850   -4.5240    2.8680 ho        1 CM5      0.411000
     75 H29       -14.7450   -6.4970    4.8050 h1        1 CM5      0.062700
     76 H34       -15.1100   -6.5730    2.6000 ho        1 CM5      0.404000
@<TRIPOS>BOND
     1    1    2 1   
     2    1    6 1   
     3    1   35 1   
     4    1   36 1   
     5    2    3 1   
     6    2   37 1   
     7    2   38 1   
     8    3    4 1   
     9    3   39 1   
    10    3   40 1   
    11    4    5 1   
    12    4   41 1   
    13    4   42 1   
    14    5    6 1   
    15    5   43 1   
    16    5   44 1   
    17    6    7 1   
    18    6   45 1   
    19    7    8 1   
    20    7   46 1   
    21    7   47 1   
    22    8    9 1   
    23    8   48 1   
    24    8   49 1   
    25    9   10 1   
    26    9   50 1   
    27    9   51 1   
    28   10   11 1   
    29   10   52 1   
    30   10   53 1   
    31   11   12 1   
    32   11   54 1   
    33   11   55 1   
    34   12   13 1   
    35   13   14 1   
    36   13   18 1   
    37   13   56 1   
    38   14   15 1   
    39   14   16 1   
    40   14   57 1   
    41   15   58 1   
    42   16   17 1   
    43   16   22 1   
    44   16   59 1   
    45   17   60 1   
    46   18   19 1   
    47   19   20 1   
    48   19   22 1   
    49   19   61 1   
    50   20   21 1   
    51   20   62 1   
    52   20   63 1   
    53   21   64 1   
    54   22   23 1   
    55   22   65 1   
    56   23   24 1   
    57   24   25 1   
    58   24   33 1   
    59   24   66 1   
    60   25   26 1   
    61   26   27 1   
    62   26   29 1   
    63   26   67 1   
    64   27   28 1   
    65   27   68 1   
    66   27   69 1   
    67   28   70 1   
    68   29   30 1   
    69   29   31 1   
    70   29   71 1   
    71   30   72 1   
    72   31   32 1   
    73   31   33 1   
    74   31   73 1   
    75   32   74 1   
    76   33   34 1   
    77   33   75 1   
    78   34   76 1   
@<TRIPOS>SUBSTRUCTURE
     1 CM5         1 TEMP              0 ****  ****    0 ROOT
