@<TRIPOS>MOLECULE
molecule
   76    78     1     0     0
SMALL
bcc


@<TRIPOS>ATOM
      1 C7           0.0000     0.0000     0.0000 c3         1 CM5      -0.075400
      2 C8           1.5300     0.0000     0.0000 c3         1 CM5      -0.079400
      3 C9           2.0400     0.0000     1.4430 c3         1 CM5      -0.079400
      4 C10          1.5300    -1.2490     2.1640 c3         1 CM5      -0.079400
      5 C11         -0.0000    -1.2490     2.1640 c3         1 CM5      -0.075400
      6 C6          -0.5100    -1.2490     0.7210 c3         1 CM5      -0.070700
      7 C5          -2.0400    -1.2490     0.7210 c3         1 CM5      -0.078400
      8 C4          -2.5510    -2.5560     1.3310 c3         1 CM5      -0.081400
      9 C3          -4.0810    -2.5540     1.3310 c3         1 CM5      -0.081400
     10 C2          -4.5920    -3.8610     1.9410 c3         1 CM5      -0.083400
     11 C1          -6.1210    -3.8610     1.9400 c3         1 CM5       0.121400
     12 O12         -6.5980    -5.0820     2.5100 os         1 CM5      -0.389600
     13 C13         -8.0260    -5.0210     2.4820 c3         1 CM5       0.312900
     14 C18         -8.6010    -6.3540     2.9650 c3         1 CM5       0.096100
     15 O22         -8.1320    -7.4120     2.1270 oh         1 CM5      -0.598800
     16 C17        -10.1310    -6.2900     2.9000 c3         1 CM5       0.114100
     17 O21        -10.6890    -7.4670     3.4880 oh         1 CM5      -0.611800
     18 O14         -8.4710    -3.9660     3.3320 os         1 CM5      -0.402600
     19 C15         -9.8770    -3.8190     3.1410 c3         1 CM5       0.148100
     20 C19        -10.3650    -2.5770     3.8890 c3         1 CM5       0.142400
     21 O20         -9.7520    -1.4130     3.3300 oh         1 CM5      -0.606800
     22 C16        -10.6040    -5.0550     3.6760 c3         1 CM5       0.100100
     23 O23        -12.0140    -4.8930     3.5050 os         1 CM5      -0.406600
     24 C24        -12.6470    -5.7110     4.4890 c3         1 CM5       0.292900
     25 O25        -12.5300    -5.0900     5.7680 os         1 CM5      -0.400600
     26 C26        -13.0110    -3.7530     5.6440 c3         1 CM5       0.118100
     27 C30        -12.7280    -2.9890     6.9390 c3         1 CM5       0.147400
     28 O31        -11.3160    -2.8710     7.1240 oh         1 CM5      -0.608800
     29 C27        -14.5180    -3.7680     5.3810 c3         1 CM5       0.111100
     30 O32        -15.0000    -2.4260     5.2860 oh         1 CM5      -0.603800
     31 C28        -14.7880    -4.5040     4.0640 c3         1 CM5       0.111100
     32 O33        -16.1960    -4.6580     3.8770 oh         1 CM5      -0.611800
     33 C29        -14.1250    -5.8840     4.1310 c3         1 CM5       0.122100
     34 O34        -14.2360    -6.5330     2.8620 oh         1 CM5      -0.587800
     35 H71         -0.3600     0.8840     0.5130 hc         1 CM5       0.041700
     36 H72         -0.3600    -0.0020    -1.0220 hc         1 CM5       0.041700
     37 H81          1.8900    -0.8860    -0.5090 hc         1 CM5       0.039450
     38 H82          1.8900     0.8860    -0.5090 hc         1 CM5       0.039450
     39 H91          3.1230    -0.0030     1.4420 hc         1 CM5       0.039700
     40 H92          1.6760     0.8840     1.9530 hc         1 CM5       0.039700
     41 H101         1.8890    -1.2460     3.1860 hc         1 CM5       0.039450
     42 H102         1.8890    -2.1320     1.6510 hc         1 CM5       0.039450
     43 H111        -0.3600    -2.1350     2.6730 hc         1 CM5       0.041700
     44 H112        -0.3600    -0.3620     2.6730 hc         1 CM5       0.041700
     45 H6          -0.1450    -2.1320     0.2110 hc         1 CM5       0.050700
     46 H51         -2.4010    -0.4120     1.3060 hc         1 CM5       0.041700
     47 H52         -2.4010    -1.1600    -0.2970 hc         1 CM5       0.041700
     48 H41         -2.1910    -3.3930     0.7450 hc         1 CM5       0.043200
     49 H42         -2.1900    -2.6450     2.3480 hc         1 CM5       0.043200
     50 H31A        -4.4420    -2.4650     0.3140 hc         1 CM5       0.042700
     51 H32A        -4.4410    -1.7170     1.9170 hc         1 CM5       0.042700
     52 H21A        -4.2310    -4.6990     1.3560 hc         1 CM5       0.051200
     53 H22A        -4.2310    -3.9500     2.9590 hc         1 CM5       0.051200
     54 H11         -6.4820    -3.0240     2.5250 h1         1 CM5       0.040700
     55 H12         -6.4820    -3.7720     0.9220 h1         1 CM5       0.040700
     56 H13         -8.3630    -4.8320     1.4700 h2         1 CM5       0.044700
     57 H18         -8.2910    -6.5300     3.9880 h1         1 CM5       0.069700
     58 H22         -7.6340    -8.0240     2.6430 ho         1 CM5       0.414000
     59 H17        -10.4460    -6.2100     1.8670 h1         1 CM5       0.063700
     60 H21        -10.6360    -8.1800     2.8730 ho         1 CM5       0.418000
     61 H15        -10.0850    -3.7120     2.0840 h1         1 CM5       0.058700
     62 H191       -11.4420    -2.4980     3.7950 h1         1 CM5       0.051200
     63 H192       -10.0990    -2.6580     4.9360 h1         1 CM5       0.051200
     64 H20        -10.2130    -0.6440     3.6220 ho         1 CM5       0.404000
     65 H16        -10.3750    -5.1810     4.7270 h1         1 CM5       0.089700
     66 H24        -12.1690    -6.6830     4.5180 h2         1 CM5       0.124700
     67 H26        -12.5080    -3.2670     4.8170 h1         1 CM5       0.083700
     68 H301       -13.1580    -3.5250     7.7760 h1         1 CM5       0.036700
     69 H302       -13.1680    -2.0010     6.8790 h1         1 CM5       0.036700
     70 H31        -11.1360    -2.5930     8.0070 ho         1 CM5       0.407000
     71 H27        -15.0210    -4.2820     6.1910 h1         1 CM5       0.052700
     72 H32        -15.8320    -2.3590     5.7240 ho         1 CM5       0.413000
     73 H28        -14.3660    -3.9390     3.2410 h1         1 CM5       0.075700
     74 H33        -16.4530    -4.2420     3.0710 ho         1 CM5       0.415000
     75 H29        -14.6120    -6.4810     4.8920 h1         1 CM5       0.062700
     76 H34        -14.8270    -7.2640     2.9330 ho         1 CM5       0.408000
@<TRIPOS>BOND
     1     1     2 1
     2     1     6 1
     3     1    35 1
     4     1    36 1
     5     2     3 1
     6     2    37 1
     7     2    38 1
     8     3     4 1
     9     3    39 1
    10     3    40 1
    11     4     5 1
    12     4    41 1
    13     4    42 1
    14     5     6 1
    15     5    43 1
    16     5    44 1
    17     6     7 1
    18     6    45 1
    19     7     8 1
    20     7    46 1
    21     7    47 1
    22     8     9 1
    23     8    48 1
    24     8    49 1
    25     9    10 1
    26     9    50 1
    27     9    51 1
    28    10    11 1
    29    10    52 1
    30    10    53 1
    31    11    12 1
    32    11    54 1
    33    11    55 1
    34    12    13 1
    35    13    14 1
    36    13    18 1
    37    13    56 1
    38    14    15 1
    39    14    16 1
    40    14    57 1
    41    15    58 1
    42    16    17 1
    43    16    22 1
    44    16    59 1
    45    17    60 1
    46    18    19 1
    47    19    20 1
    48    19    22 1
    49    19    61 1
    50    20    21 1
    51    20    62 1
    52    20    63 1
    53    21    64 1
    54    22    23 1
    55    22    65 1
    56    23    24 1
    57    24    25 1
    58    24    33 1
    59    24    66 1
    60    25    26 1
    61    26    27 1
    62    26    29 1
    63    26    67 1
    64    27    28 1
    65    27    68 1
    66    27    69 1
    67    28    70 1
    68    29    30 1
    69    29    31 1
    70    29    71 1
    71    30    72 1
    72    31    32 1
    73    31    33 1
    74    31    73 1
    75    32    74 1
    76    33    34 1
    77    33    75 1
    78    34    76 1
@<TRIPOS>SUBSTRUCTURE
     1 CM5         1 TEMP              0 ****  ****    0 ROOT
