@<TRIPOS>MOLECULE
molecule
   44    47     1     0     0
SMALL
bcc


@<TRIPOS>ATOM
      1 O1           0.0000     0.0000     0.0000 o          1 CM6      -0.576100
      2 C1           1.2130     0.0000     0.0000 c          1 CM6       0.664100
      3 N1           1.8870     0.0070    -1.1670 ns         1 CM6      -0.469100
      4 C2           1.1940    -0.1000    -2.3730 ca         1 CM6       0.092600
      5 C3           1.6660     0.5260    -3.5260 ca         1 CM6      -0.274800
      6 C4           0.9520     0.3970    -4.7000 ca         1 CM6       0.437700
      7 N2          -0.1630    -0.3100    -4.7380 nb         1 CM6      -0.706000
      8 C5          -0.6410    -0.9190    -3.6690 ca         1 CM6       0.437700
      9 C6           0.0170    -0.8410    -2.4590 ca         1 CM6      -0.274800
     10 C7           1.9660     0.0000     1.3050 c3         1 CM6       0.224800
     11 N3           1.0130    -0.0000     2.4190 n7         1 CM6      -0.886100
     12 S1           1.3470     0.8610     3.7940 sy         1 CM6       1.436200
     13 O2           0.2600     0.6160     4.6760 o          1 CM6      -0.624300
     14 O3           1.7740     2.1420     3.3530 o          1 CM6      -0.624300
     15 C8           2.7540     0.1200     4.5510 ca         1 CM6      -0.272500
     16 C9           3.9140     0.8130     4.6480 ca         1 CM6       0.010000
     17 C10          5.0480     0.2580     5.2410 ca         1 CM6      -0.160000
     18 C11          5.0400    -0.9970     5.7480 ca         1 CM6      -0.017000
     19 C12          3.8590    -1.7820     5.6830 ca         1 CM6      -0.100000
     20 N4           3.6410    -3.0230     6.1140 nc         1 CM6      -0.337500
     21 S2           2.1490    -3.3530     5.7640 ss         1 CM6       0.714000
     22 N5           1.6410    -2.0440     5.0690 nc         1 CM6      -0.347500
     23 C13          2.6700    -1.2000     5.0660 ca         1 CM6      -0.015000
     24 C14          2.8320    -1.2300     1.3860 ca         1 CM6      -0.127300
     25 C15          4.1820    -1.1440     1.1000 ca         1 CM6      -0.110500
     26 C16          4.9770    -2.2730     1.1720 ca         1 CM6      -0.129000
     27 C17          4.4230    -3.4870     1.5330 ca         1 CM6      -0.115000
     28 C18          3.0740    -3.5720     1.8200 ca         1 CM6      -0.129000
     29 C19          2.2790    -2.4430     1.7510 ca         1 CM6      -0.110500
     30 H1           2.8820     0.1170    -1.1690 hn         1 CM6       0.330500
     31 H3           2.5800     1.1070    -3.5010 ha         1 CM6       0.150500
     32 H4           1.3100     0.8800    -5.6000 h4         1 CM6       0.025600
     33 H5          -1.5580    -1.4900    -3.7440 h4         1 CM6       0.025600
     34 H6          -0.3810    -1.3430    -1.5850 ha         1 CM6       0.150500
     35 H7           2.5890     0.8850     1.3630 h1         1 CM6       0.091700
     36 HA           0.1420    -0.4850     2.3320 hn         1 CM6       0.478800
     37 H9           3.9620     1.8210     4.2540 ha         1 CM6       0.162000
     38 H10          5.9570     0.8460     5.2990 ha         1 CM6       0.144000
     39 H11          5.9350    -1.4030     6.2040 ha         1 CM6       0.152000
     40 H15          4.6170    -0.1930     0.8170 ha         1 CM6       0.136500
     41 H16          6.0350    -2.2060     0.9480 ha         1 CM6       0.135000
     42 H17          5.0450    -4.3720     1.5880 ha         1 CM6       0.135000
     43 H18          2.6400    -4.5230     2.1040 ha         1 CM6       0.135000
     44 H19          1.2220    -2.5110     1.9760 ha         1 CM6       0.136500
@<TRIPOS>BOND
     1     1     2 2
     2     2     3 1
     3     2    10 1
     4     3     4 1
     5     3    30 1
     6     4     5 ar
     7     4     9 ar
     8     5     6 ar
     9     5    31 1
    10     6     7 ar
    11     6    32 1
    12     7     8 ar
    13     8     9 ar
    14     8    33 1
    15     9    34 1
    16    10    11 1
    17    10    24 1
    18    10    35 1
    19    11    12 1
    20    11    36 1
    21    12    13 2
    22    12    14 2
    23    12    15 1
    24    15    16 ar
    25    15    23 ar
    26    16    17 ar
    27    16    37 1
    28    17    18 ar
    29    17    38 1
    30    18    19 ar
    31    18    39 1
    32    19    20 2
    33    19    23 ar
    34    20    21 1
    35    21    22 1
    36    22    23 2
    37    24    25 ar
    38    24    29 ar
    39    25    26 ar
    40    25    40 1
    41    26    27 ar
    42    26    41 1
    43    27    28 ar
    44    27    42 1
    45    28    29 ar
    46    28    43 1
    47    29    44 1
@<TRIPOS>SUBSTRUCTURE
     1 CM6         1 TEMP              0 ****  ****    0 ROOT
