@<TRIPOS>MOLECULE
molecule
   79    83     1     0     0
SMALL
bcc


@<TRIPOS>ATOM
      1 C01          0.0000     0.0000     0.0000 c3         1 CM7      -0.088100
      2 C02          1.5390     0.0000     0.0000 c3         1 CM7      -0.006200
      3 C03          2.0790     0.0000     1.4490 cc         1 CM7      -0.150400
      4 C04          2.8060    -1.0830     2.0880 cd         1 CM7      -0.097100
      5 N05          3.0530    -0.6400     3.3920 na         1 CM7      -0.103400
      6 C06          3.8730    -1.5960     4.2250 c3         1 CM7       0.064300
      7 C07          3.7750    -1.7210     5.7540 c3         1 CM7      -0.207600
      8 S08          2.9020    -0.2800     6.5130 s6         1 CM7       1.227900
      9 O09          3.1890    -0.2570     7.9720 o          1 CM7      -0.585300
     10 O10          1.5100    -0.5800     6.2690 o          1 CM7      -0.585300
     11 N11          3.2570     1.1320     5.9610 nh         1 CM7      -0.677900
     12 C12          4.5100     1.8110     6.3420 c3         1 CM7       0.215100
     13 C13          2.6300     1.6600     4.7410 ca         1 CM7       0.114600
     14 C14          2.0130     2.9430     4.6430 ca         1 CM7      -0.045000
     15 C15          1.3980     3.3070     3.4290 ca         1 CM7      -0.178600
     16 C16          1.3240     2.4220     2.2540 ca         1 CM7      -0.030000
     17 C17          1.9450     1.0920     2.3830 ca         1 CM7      -0.068800
     18 C18          2.5770     0.7240     3.6020 ca         1 CM7      -0.044200
     19 C19          0.8220     4.6890     3.4290 c          1 CM7       0.687700
     20 O20          1.5210     5.6140     3.7640 o          1 CM7      -0.571100
     21 N21         -0.3610     4.8410     2.6480 ns         1 CM7      -0.616900
     22 C22         -0.8230     6.1410     2.1870 c3         1 CM7       0.109700
     23 C23         -1.3420     5.8920     0.7380 c3         1 CM7      -0.043100
     24 C24         -0.3090     5.1120    -0.1200 ca         1 CM7      -0.087300
     25 C25          1.1060     5.4710    -0.1200 ca         1 CM7      -0.130000
     26 C26          2.0250     4.7210    -0.9360 ca         1 CM7      -0.130000
     27 C27          1.5140     3.6120    -1.7540 ca         1 CM7      -0.143000
     28 C28          0.1140     3.2530    -1.7590 ca         1 CM7      -0.130000
     29 C29         -0.8090     4.0110    -0.9440 ca         1 CM7      -0.130000
     30 C30         -1.9700     6.5700     3.1250 c3         1 CM7       0.133100
     31 O31         -2.5540     7.7750     2.5930 oh         1 CM7      -0.589800
     32 C32         -1.4240     6.9240     4.5390 c3         1 CM7       0.155800
     33 N33         -2.5700     7.4290     5.3580 n7         1 CM7      -0.825200
     34 C34         -2.1400     8.2360     6.5300 c3         1 CM7       0.219100
     35 C35         -1.2750     9.4540     6.1200 ca         1 CM7      -0.102300
     36 C36          0.1050     9.5680     6.5780 ca         1 CM7      -0.099000
     37 C37          0.9040    10.7160     6.1880 ca         1 CM7      -0.142000
     38 C38          0.3270    11.7630     5.3570 ca         1 CM7      -0.078000
     39 C39         -1.0380    11.6350     4.8960 ca         1 CM7      -0.213300
     40 C40         -1.8460    10.4930     5.2780 ca         1 CM7      -0.042000
     41 C41         -1.6730    12.7060     4.0110 c3         1 CM7       0.710200
     42 F42         -2.8700    13.0980     4.4950 f          1 CM7      -0.230633
     43 F43         -1.8840    12.1840     2.7880 f          1 CM7      -0.230633
     44 F44         -0.8670    13.7820     3.9130 f          1 CM7      -0.230633
     45 H011        -0.3610    -0.9040     0.4750 hc         1 CM7       0.035700
     46 H012        -0.3610     0.0410    -1.0210 hc         1 CM7       0.035700
     47 H013        -0.3610     0.8630     0.5460 hc         1 CM7       0.035700
     48 H021         1.8970     0.8830    -0.5150 hc         1 CM7       0.045700
     49 H022         1.8970    -0.8830    -0.5150 hc         1 CM7       0.045700
     50 H04          3.3210    -1.8900     1.5810 h4         1 CM7       0.187000
     51 H061         3.6740    -2.5850     3.8300 h1         1 CM7       0.056200
     52 H062         4.9100    -1.3690     4.0090 h1         1 CM7       0.056200
     53 H071         3.2330    -2.6270     5.9980 h1         1 CM7       0.109200
     54 H072         4.7750    -1.7810     6.1660 h1         1 CM7       0.109200
     55 H121         4.2870     2.6300     7.0160 h1         1 CM7       0.055033
     56 H122         5.1680     1.1060     6.8370 h1         1 CM7       0.055033
     57 H123         4.9970     2.1960     5.4540 h1         1 CM7       0.055033
     58 H14          2.0400     3.6330     5.4770 ha         1 CM7       0.166000
     59 H16          0.8430     2.7370     1.3370 ha         1 CM7       0.165000
     60 H21         -0.8930     4.0270     2.4120 hn         1 CM7       0.320500
     61 H22         -0.0180     6.8660     2.1950 h1         1 CM7       0.098700
     62 H231        -1.5420     6.8470     0.2670 hc         1 CM7       0.058200
     63 H232        -2.2620     5.3230     0.7870 hc         1 CM7       0.058200
     64 H30         -2.7150     5.7870     3.1930 h1         1 CM7       0.034700
     65 H25          1.4620     6.2920     0.4910 ha         1 CM7       0.139500
     66 H29         -1.8620     3.7570    -0.9330 ha         1 CM7       0.139500
     67 H26          3.0780     4.9720    -0.9490 ha         1 CM7       0.138000
     68 H27          2.2050     3.0460    -2.3660 ha         1 CM7       0.130000
     69 H28         -0.2410     2.4330    -2.3720 ha         1 CM7       0.138000
     70 H31         -3.4400     7.6020     2.3210 ho         1 CM7       0.399000
     71 H321        -0.6650     7.6930     4.4580 h1         1 CM7       0.053200
     72 H322        -1.0030     6.0400     5.0030 h1         1 CM7       0.053200
     73 H33         -3.1230     6.6550     5.6700 hn         1 CM7       0.351800
     74 H341        -3.0210     8.5910     7.0520 h1         1 CM7       0.039200
     75 H342        -1.5660     7.6070     7.1980 h1         1 CM7       0.039200
     76 H36          0.5370     8.7910     7.1970 ha         1 CM7       0.139000
     77 H40         -2.8670    10.4080     4.9270 ha         1 CM7       0.160000
     78 H37          1.9270    10.8030     6.5320 ha         1 CM7       0.141000
     79 H38          0.9230    12.6200     5.0660 ha         1 CM7       0.149000
@<TRIPOS>BOND
     1     1     2 1
     2     2     3 1
     3     3     4 2
     4     3    17 1
     5     4     5 1
     6     5     6 1
     7     5    18 1
     8     6     7 1
     9     7     8 1
    10     8     9 2
    11     8    10 2
    12     8    11 1
    13    11    12 1
    14    11    13 1
    15    13    14 ar
    16    13    18 ar
    17    14    15 ar
    18    15    16 ar
    19    15    19 1
    20    16    17 ar
    21    17    18 ar
    22    19    20 2
    23    19    21 1
    24    21    22 1
    25    22    23 1
    26    22    30 1
    27    23    24 1
    28    24    25 ar
    29    24    29 ar
    30    25    26 ar
    31    26    27 ar
    32    27    28 ar
    33    28    29 ar
    34    30    31 1
    35    30    32 1
    36    32    33 1
    37    33    34 1
    38    34    35 1
    39    35    36 ar
    40    35    40 ar
    41    36    37 ar
    42    37    38 ar
    43    38    39 ar
    44    39    40 ar
    45    39    41 1
    46    41    42 1
    47    41    43 1
    48    41    44 1
    49     1    45 1
    50     1    46 1
    51     1    47 1
    52     2    48 1
    53     2    49 1
    54     4    50 1
    55     6    51 1
    56     6    52 1
    57     7    53 1
    58     7    54 1
    59    12    55 1
    60    12    56 1
    61    12    57 1
    62    14    58 1
    63    16    59 1
    64    21    60 1
    65    22    61 1
    66    23    62 1
    67    23    63 1
    68    30    64 1
    69    25    65 1
    70    29    66 1
    71    26    67 1
    72    27    68 1
    73    28    69 1
    74    31    70 1
    75    32    71 1
    76    32    72 1
    77    33    73 1
    78    34    74 1
    79    34    75 1
    80    36    76 1
    81    40    77 1
    82    37    78 1
    83    38    79 1
@<TRIPOS>SUBSTRUCTURE
     1 CM7         1 TEMP              0 ****  ****    0 ROOT
