@<TRIPOS>MOLECULE
CM7
   79    83     1     0     0
SMALL
bcc


@<TRIPOS>ATOM
      1 C01          0.0000     0.0000     0.0000 c3         1 CM7       0.001900
      2 C02          1.5390     0.0000     0.0000 c3         1 CM7       0.068800
      3 C03          2.0790     0.0000     1.4490 cc         1 CM7      -0.147400
      4 C04          2.8060    -1.0830     2.0880 cd         1 CM7      -0.238100
      5 N05          3.0530    -0.6400     3.3920 na         1 CM7       0.334600
      6 C06          3.8730    -1.5960     4.2250 c3         1 CM7      -0.003700
      7 C07          3.7750    -1.7210     5.7540 c3         1 CM7       0.009400
      8 S08          2.9020    -0.2800     6.5130 s6         1 CM7       0.852900
      9 O09          3.1890    -0.2570     7.9720 o          1 CM7      -0.554300
     10 O10          1.5100    -0.5800     6.2690 o          1 CM7      -0.554300
     11 N11          3.2570     1.1320     5.9610 nh         1 CM7      -0.347900
     12 C12          4.5100     1.8110     6.3420 c3         1 CM7       0.258100
     13 C13          2.6300     1.6600     4.7410 ca         1 CM7       0.066600
     14 C14          2.0130     2.9430     4.6430 ca         1 CM7      -0.021000
     15 C15          1.3980     3.3070     3.4290 ca         1 CM7      -0.189600
     16 C16          1.3240     2.4220     2.2540 ca         1 CM7       0.002000
     17 C17          1.9450     1.0920     2.3830 ca         1 CM7      -0.068800
     18 C18          2.5770     0.7240     3.6020 ca         1 CM7      -0.198200
     19 C19          0.8220     4.6890     3.4290 c          1 CM7       0.629700
     20 O20          1.5210     5.6140     3.7640 o          1 CM7      -0.609100
     21 N21         -0.3610     4.8410     2.6480 ns         1 CM7      -0.264900
     22 C22         -0.8230     6.1410     2.1870 c3         1 CM7       0.013700
     23 C23         -1.3420     5.8920     0.7380 c3         1 CM7       0.024900
     24 C24         -0.3090     5.1120    -0.1200 ca         1 CM7      -0.096300
     25 C25          1.1060     5.4710    -0.1200 ca         1 CM7      -0.101000
     26 C26          2.0250     4.7210    -0.9360 ca         1 CM7      -0.098500
     27 C27          1.5140     3.6120    -1.7540 ca         1 CM7      -0.111000
     28 C28          0.1140     3.2530    -1.7590 ca         1 CM7      -0.098500
     29 C29         -0.8090     4.0110    -0.9440 ca         1 CM7      -0.101000
     30 C30         -1.9700     6.5700     3.1250 c3         1 CM7       0.174100
     31 O31         -2.5540     7.7750     2.5930 oh         1 CM7      -0.568800
     32 C32         -1.4240     6.9240     4.5390 c3         1 CM7       0.121800
     33 N33         -2.5700     7.4290     5.3580 n7         1 CM7      -0.582200
     34 C34         -2.1400     8.2360     6.5300 c3         1 CM7       0.222100
     35 C35         -1.2750     9.4540     6.1200 ca         1 CM7      -0.110300
     36 C36          0.1050     9.5680     6.5780 ca         1 CM7      -0.059000
     37 C37          0.9040    10.7160     6.1880 ca         1 CM7      -0.113000
     38 C38          0.3270    11.7630     5.3570 ca         1 CM7      -0.033000
     39 C39         -1.0380    11.6350     4.8960 ca         1 CM7      -0.234300
     40 C40         -1.8460    10.4930     5.2780 ca         1 CM7       0.001000
     41 C41         -1.6730    12.7060     4.0110 c3         1 CM7       0.629200
     42 F42         -2.8700    13.0980     4.4950 f          1 CM7      -0.202967
     43 F43         -1.8840    12.1840     2.7880 f          1 CM7      -0.202967
     44 F44         -0.8670    13.7820     3.9130 f          1 CM7      -0.202967
     45 H011        -0.3610    -0.9040     0.4750 hc         1 CM7       0.003700
     46 H012        -0.3610     0.0410    -1.0210 hc         1 CM7       0.003700
     47 H013        -0.3610     0.8630     0.5460 hc         1 CM7       0.003700
     48 H021         1.8970     0.8830    -0.5150 hc         1 CM7       0.011200
     49 H022         1.8970    -0.8830    -0.5150 hc         1 CM7       0.011200
     50 H04          3.3210    -1.8900     1.5810 h4         1 CM7       0.154000
     51 H061         3.6740    -2.5850     3.8300 h1         1 CM7       0.022200
     52 H062         4.9100    -1.3690     4.0090 h1         1 CM7       0.022200
     53 H071         3.2330    -2.6270     5.9980 h1         1 CM7       0.078200
     54 H072         4.7750    -1.7810     6.1660 h1         1 CM7       0.078200
     55 H121         4.2870     2.6300     7.0160 h1         1 CM7       0.012033
     56 H122         5.1680     1.1060     6.8370 h1         1 CM7       0.012033
     57 H123         4.9970     2.1960     5.4540 h1         1 CM7       0.012033
     58 H14          2.0400     3.6330     5.4770 ha         1 CM7       0.129000
     59 H16          0.8430     2.7370     1.3370 ha         1 CM7       0.127000
     60 H21         -0.8930     4.0270     2.4120 hn         1 CM7       0.189500
     61 H22         -0.0180     6.8660     2.1950 h1         1 CM7       0.072700
     62 H231        -1.5420     6.8470     0.2670 hc         1 CM7       0.026200
     63 H232        -2.2620     5.3230     0.7870 hc         1 CM7       0.026200
     64 H30         -2.7150     5.7870     3.1930 h1         1 CM7       0.002700
     65 H25          1.4620     6.2920     0.4910 ha         1 CM7       0.112500
     66 H29         -1.8620     3.7570    -0.9330 ha         1 CM7       0.112500
     67 H26          3.0780     4.9720    -0.9490 ha         1 CM7       0.108000
     68 H27          2.2050     3.0460    -2.3660 ha         1 CM7       0.100000
     69 H28         -0.2410     2.4330    -2.3720 ha         1 CM7       0.108000
     70 H31         -3.4400     7.6020     2.3210 ho         1 CM7       0.386000
     71 H321        -0.6650     7.6930     4.4580 h1         1 CM7       0.027700
     72 H322        -1.0030     6.0400     5.0030 h1         1 CM7       0.027700
     73 H33         -3.1230     6.6550     5.6700 hn         1 CM7       0.248800
     74 H341        -3.0210     8.5910     7.0520 h1         1 CM7       0.007200
     75 H342        -1.5660     7.6070     7.1980 h1         1 CM7       0.007200
     76 H36          0.5370     8.7910     7.1970 ha         1 CM7       0.108000
     77 H40         -2.8670    10.4080     4.9270 ha         1 CM7       0.124000
     78 H37          1.9270    10.8030     6.5320 ha         1 CM7       0.109000
     79 H38          0.9230    12.6200     5.0660 ha         1 CM7       0.116000
@<TRIPOS>BOND
     1     1     2 1   
     2     1    45 1   
     3     1    46 1   
     4     1    47 1   
     5     2     3 1   
     6     2    48 1   
     7     2    49 1   
     8     3     4 2   
     9     3    17 1   
    10     4     5 1   
    11     4    50 1   
    12     5     6 1   
    13     5    18 1   
    14     6     7 1   
    15     6    51 1   
    16     6    52 1   
    17     7     8 1   
    18     7    53 1   
    19     7    54 1   
    20     8     9 2   
    21     8    10 2   
    22     8    11 1   
    23    11    12 1   
    24    11    13 1   
    25    12    55 1   
    26    12    56 1   
    27    12    57 1   
    28    13    14 ar  
    29    13    18 ar  
    30    14    15 ar  
    31    14    58 1   
    32    15    16 ar  
    33    15    19 1   
    34    16    17 ar  
    35    16    59 1   
    36    17    18 ar  
    37    19    20 2   
    38    19    21 1   
    39    21    22 1   
    40    21    60 1   
    41    22    23 1   
    42    22    30 1   
    43    22    61 1   
    44    23    24 1   
    45    23    62 1   
    46    23    63 1   
    47    24    25 ar  
    48    24    29 ar  
    49    25    26 ar  
    50    25    65 1   
    51    26    27 ar  
    52    26    67 1   
    53    27    28 ar  
    54    27    68 1   
    55    28    29 ar  
    56    28    69 1   
    57    29    66 1   
    58    30    31 1   
    59    30    32 1   
    60    30    64 1   
    61    31    70 1   
    62    32    33 1   
    63    32    71 1   
    64    32    72 1   
    65    33    34 1   
    66    33    73 1   
    67    34    35 1   
    68    34    74 1   
    69    34    75 1   
    70    35    36 ar  
    71    35    40 ar  
    72    36    37 ar  
    73    36    76 1   
    74    37    38 ar  
    75    37    78 1   
    76    38    39 ar  
    77    38    79 1   
    78    39    40 ar  
    79    39    41 1   
    80    40    77 1   
    81    41    42 1   
    82    41    43 1   
    83    41    44 1   
@<TRIPOS>SUBSTRUCTURE
     1 CM7         1 TEMP              0 ****  ****    0 ROOT
