@<TRIPOS>MOLECULE
molecule
   80    83     1     0     0
SMALL
bcc


@<TRIPOS>ATOM
      1 C02          0.0000     0.0000     0.0000 c3         1 CM8      -0.121100
      2 C01          1.5000     0.0000     0.0000 c3         1 CM8       0.229800
      3 C06          6.1040     0.4500     6.3210 c3         1 CM8      -0.067400
      4 C07          4.6260    -0.0750     6.3420 c3         1 CM8      -0.200600
      5 S08          3.5290     1.4260     6.3780 s6         1 CM8       1.248900
      6 O10          2.1550     1.0050     6.1680 o          1 CM8      -0.606300
      7 O09          3.7090     2.0620     7.6680 o          1 CM8      -0.606300
      8 N11          3.9900     2.4290     5.2760 nh         1 CM8      -0.648900
      9 C12          5.4300     2.8020     5.3050 c3         1 CM8       0.201800
     10 C13          3.3660     2.3600     3.9740 ca         1 CM8       0.137600
     11 C14          3.2010     3.6470     3.3270 ca         1 CM8      -0.122000
     12 C15          2.6260     3.7070     2.0310 ca         1 CM8      -0.100600
     13 C16          2.2170     2.5270     1.3410 ca         1 CM8      -0.171000
     14 C17          2.4250     1.2410     1.9810 ca         1 CM8       0.209600
     15 C18          3.0190     1.1640     3.3200 ca         1 CM8      -0.185000
     16 O20          3.2800     5.8820     1.3470 o          1 CM8      -0.559100
     17 N21          1.1730     5.1970     0.6580 ns         1 CM8      -0.628900
     18 C22          0.9630     6.3500    -0.2270 c3         1 CM8       0.111700
     19 C23          0.3580     5.8010    -1.5370 c3         1 CM8      -0.045100
     20 C24          1.1220     4.5560    -2.0580 ca         1 CM8      -0.083300
     21 C29          0.3300     3.3970    -2.4590 ca         1 CM8      -0.129000
     22 C28          1.0490     2.2310    -2.9400 ca         1 CM8      -0.131500
     23 C27          2.4850     2.2360    -3.0320 ca         1 CM8      -0.145000
     24 C26          3.2770     3.3850    -2.6280 ca         1 CM8      -0.131500
     25 C25          2.5790     4.5530    -2.1550 ca         1 CM8      -0.129000
     26 C30         -0.0410     7.3200     0.4660 c3         1 CM8       0.129100
     27 O31         -0.3870     8.3730    -0.4700 oh         1 CM8      -0.588800
     28 C32          0.6930     8.0370     1.6280 c3         1 CM8       0.145800
     29 N33         -0.2290     9.0700     2.1780 n7         1 CM8      -0.813200
     30 C34          0.5080    10.0290     3.0290 c3         1 CM8       0.212100
     31 C35          1.5140    10.8620     2.1940 ca         1 CM8      -0.099300
     32 C36          2.9030    10.8900     2.6000 ca         1 CM8      -0.102000
     33 C37          3.8760    11.6580     1.8530 ca         1 CM8      -0.142000
     34 C38          3.4700    12.3980     0.6900 ca         1 CM8      -0.081000
     35 C39          2.0810    12.3540     0.2830 ca         1 CM8      -0.219300
     36 C31          6.3170     1.5130     5.1710 c3         1 CM8      -0.138400
     37 C40          1.0990    11.5990     1.0280 ca         1 CM8      -0.035000
     38 C41          1.6490    13.1360    -0.9350 c3         1 CM8       0.708200
     39 F44          0.6950    13.9990    -0.5520 f          1 CM8      -0.229967
     40 F43          1.1550    12.3010    -1.8740 f          1 CM8      -0.229967
     41 N03          2.0650     0.0000     1.3160 nu         1 CM8      -0.823600
     42 F42          2.6860    13.8570    -1.4470 f          1 CM8      -0.229967
     43 H011         1.8470     0.8800    -0.5270 h1         1 CM8       0.047700
     44 H012         1.8470    -0.8810    -0.5270 h1         1 CM8       0.047700
     45 H021        -0.3610    -0.0290    -1.0210 hc         1 CM8       0.041367
     46 H022        -0.3610     0.8990     0.4850 hc         1 CM8       0.041367
     47 H023        -0.3610    -0.8700     0.5360 hc         1 CM8       0.041367
     48 H03          2.2170    -0.8710     1.7860 hn         1 CM8       0.440800
     49 H061         6.3290     0.9110     7.2750 hc         1 CM8       0.062700
     50 H062         6.7740    -0.3860     6.1580 hc         1 CM8       0.062700
     51 H071         4.4280    -0.6570     5.4500 h1         1 CM8       0.096200
     52 H072         4.4600    -0.6760     7.2280 h1         1 CM8       0.096200
     53 H311         6.0920     1.0410     4.2230 hc         1 CM8       0.061200
     54 H312         7.3580     1.8140     5.1720 hc         1 CM8       0.061200
     55 H121         5.6440     3.4720     4.4810 h1         1 CM8       0.085200
     56 H122         5.6530     3.2950     6.2440 h1         1 CM8       0.085200
     57 H14          3.5040     4.5560     3.8330 ha         1 CM8       0.160000
     58 H18          3.1750     0.2060     3.8010 ha         1 CM8       0.141000
     59 H16          1.7790     2.5880     0.3520 ha         1 CM8       0.159000
     60 H21          0.4540     4.5090     0.7570 hn         1 CM8       0.321500
     61 H22          1.9020     6.8530    -0.4240 h1         1 CM8       0.098700
     62 H231        -0.6760     5.5300    -1.3610 hc         1 CM8       0.058200
     63 H232         0.3940     6.5760    -2.2930 hc         1 CM8       0.058200
     64 H30         -0.9220     6.7970     0.8170 h1         1 CM8       0.040700
     65 H25          3.1400     5.4270    -1.8470 ha         1 CM8       0.141000
     66 H29         -0.7510     3.4010    -2.3860 ha         1 CM8       0.141000
     67 H26          4.3580     3.3730    -2.7040 ha         1 CM8       0.136000
     68 H27          2.9920     1.3490    -3.3930 ha         1 CM8       0.128000
     69 H28          0.4960     1.3520    -3.2490 ha         1 CM8       0.136000
     70 H31         -1.3180     8.3680    -0.6180 ho         1 CM8       0.399000
     71 H321         0.9440     7.3210     2.4010 h1         1 CM8       0.053200
     72 H322         1.5950     8.5090     1.2570 h1         1 CM8       0.053200
     73 H33         -0.9450     8.6260     2.7190 hn         1 CM8       0.349800
     74 H341        -0.2000    10.6990     3.5030 h1         1 CM8       0.040700
     75 H342         1.0470     9.4830     3.7940 h1         1 CM8       0.040700
     76 H36          3.2170    10.3340     3.4760 ha         1 CM8       0.136000
     77 H40          0.0640    11.5790     0.7070 ha         1 CM8       0.162000
     78 H37          4.9110    11.6740     2.1710 ha         1 CM8       0.140000
     79 H38          4.1920    12.9720     0.1220 ha         1 CM8       0.151000
     80 C19          2.4100     5.0580     1.3970 c          1 CM8       0.691700
@<TRIPOS>BOND
     1     2     1 1
     2     2    41 1
     3     3     4 1
     4     3    36 1
     5     4     5 1
     6     5     7 2
     7     5     6 2
     8     5     8 1
     9     8     9 1
    10     8    10 1
    11     9    36 1
    12    10    11 ar
    13    10    15 ar
    14    11    12 ar
    15    12    13 ar
    16    12    80 1
    17    13    14 ar
    18    14    15 ar
    19    14    41 1
    20    80    16 2
    21    80    17 1
    22    17    18 1
    23    18    19 1
    24    18    26 1
    25    19    20 1
    26    20    25 ar
    27    20    21 ar
    28    25    24 ar
    29    24    23 ar
    30    23    22 ar
    31    22    21 ar
    32    26    27 1
    33    26    28 1
    34    28    29 1
    35    29    30 1
    36    30    31 1
    37    31    32 ar
    38    31    37 ar
    39    32    33 ar
    40    33    34 ar
    41    34    35 ar
    42    35    37 ar
    43    35    38 1
    44    38    42 1
    45    38    40 1
    46    38    39 1
    47     2    43 1
    48     2    44 1
    49     1    45 1
    50     1    46 1
    51     1    47 1
    52    41    48 1
    53     3    49 1
    54     3    50 1
    55     4    51 1
    56     4    52 1
    57    36    53 1
    58    36    54 1
    59     9    55 1
    60     9    56 1
    61    11    57 1
    62    15    58 1
    63    13    59 1
    64    17    60 1
    65    18    61 1
    66    19    62 1
    67    19    63 1
    68    26    64 1
    69    25    65 1
    70    21    66 1
    71    24    67 1
    72    23    68 1
    73    22    69 1
    74    27    70 1
    75    28    71 1
    76    28    72 1
    77    29    73 1
    78    30    74 1
    79    30    75 1
    80    32    76 1
    81    37    77 1
    82    33    78 1
    83    34    79 1
@<TRIPOS>SUBSTRUCTURE
     1 CM8         1 TEMP              0 ****  ****    0 ROOT
