@<TRIPOS>MOLECULE
CM8
   80    83     1     0     0
SMALL
bcc


@<TRIPOS>ATOM
      1 C02          0.0000     0.0000     0.0000 c3         1 CM8      -0.024100
      2 C01          1.5000     0.0000     0.0000 c3         1 CM8       0.150800
      3 C06          6.1040     0.4500     6.3210 c3         1 CM8       0.005600
      4 C07          4.6260    -0.0750     6.3420 c3         1 CM8      -0.002600
      5 S08          3.5290     1.4260     6.3780 s6         1 CM8       0.878900
      6 O10          2.1550     1.0050     6.1680 o          1 CM8      -0.570800
      7 O09          3.7090     2.0620     7.6680 o          1 CM8      -0.570800
      8 N11          3.9900     2.4290     5.2760 nh         1 CM8      -0.326900
      9 C12          5.4300     2.8020     5.3050 c3         1 CM8       0.206800
     10 C13          3.3660     2.3600     3.9740 ca         1 CM8       0.078600
     11 C14          3.2010     3.6470     3.3270 ca         1 CM8      -0.099000
     12 C15          2.6260     3.7070     2.0310 ca         1 CM8      -0.109600
     13 C16          2.2170     2.5270     1.3410 ca         1 CM8      -0.159000
     14 C17          2.4250     1.2410     1.9810 ca         1 CM8       0.078600
     15 C18          3.0190     1.1640     3.3200 ca         1 CM8      -0.159000
     16 O20          3.2800     5.8820     1.3470 o          1 CM8      -0.597100
     17 N21          1.1730     5.1970     0.6580 ns         1 CM8      -0.283900
     18 C22          0.9630     6.3500    -0.2270 c3         1 CM8       0.015700
     19 C23          0.3580     5.8010    -1.5370 c3         1 CM8       0.021900
     20 C24          1.1220     4.5560    -2.0580 ca         1 CM8      -0.091300
     21 C29          0.3300     3.3970    -2.4590 ca         1 CM8      -0.100000
     22 C28          1.0490     2.2310    -2.9400 ca         1 CM8      -0.101000
     23 C27          2.4850     2.2360    -3.0320 ca         1 CM8      -0.115000
     24 C26          3.2770     3.3850    -2.6280 ca         1 CM8      -0.101000
     25 C25          2.5790     4.5530    -2.1550 ca         1 CM8      -0.100000
     26 C30         -0.0410     7.3200     0.4660 c3         1 CM8       0.173100
     27 O31         -0.3870     8.3730    -0.4700 oh         1 CM8      -0.568800
     28 C32          0.6930     8.0370     1.6280 c3         1 CM8       0.113800
     29 N33         -0.2290     9.0700     2.1780 n7         1 CM8      -0.576200
     30 C34          0.5080    10.0290     3.0290 c3         1 CM8       0.216100
     31 C35          1.5140    10.8620     2.1940 ca         1 CM8      -0.109300
     32 C36          2.9030    10.8900     2.6000 ca         1 CM8      -0.063000
     33 C37          3.8760    11.6580     1.8530 ca         1 CM8      -0.114000
     34 C38          3.4700    12.3980     0.6900 ca         1 CM8      -0.038000
     35 C39          2.0810    12.3540     0.2830 ca         1 CM8      -0.242300
     36 C31          6.3170     1.5130     5.1710 c3         1 CM8      -0.078400
     37 C40          1.0990    11.5990     1.0280 ca         1 CM8       0.010000
     38 C41          1.6490    13.1360    -0.9350 c3         1 CM8       0.631200
     39 F44          0.6950    13.9990    -0.5520 f          1 CM8      -0.202967
     40 F43          1.1550    12.3010    -1.8740 f          1 CM8      -0.202967
     41 N03          2.0650     0.0000     1.3160 nu         1 CM8      -0.424600
     42 F42          2.6860    13.8570    -1.4470 f          1 CM8      -0.202967
     43 H011         1.8470     0.8800    -0.5270 h1         1 CM8       0.023200
     44 H012         1.8470    -0.8810    -0.5270 h1         1 CM8       0.023200
     45 H021        -0.3610    -0.0290    -1.0210 hc         1 CM8       0.009367
     46 H022        -0.3610     0.8990     0.4850 hc         1 CM8       0.009367
     47 H023        -0.3610    -0.8700     0.5360 hc         1 CM8       0.009367
     48 H03          2.2170    -0.8710     1.7860 hn         1 CM8       0.290800
     49 H061         6.3290     0.9110     7.2750 hc         1 CM8       0.027200
     50 H062         6.7740    -0.3860     6.1580 hc         1 CM8       0.027200
     51 H071         4.4280    -0.6570     5.4500 h1         1 CM8       0.067700
     52 H072         4.4600    -0.6760     7.2280 h1         1 CM8       0.067700
     53 H311         6.0920     1.0410     4.2230 hc         1 CM8       0.026200
     54 H312         7.3580     1.8140     5.1720 hc         1 CM8       0.026200
     55 H121         5.6440     3.4720     4.4810 h1         1 CM8       0.044700
     56 H122         5.6530     3.2950     6.2440 h1         1 CM8       0.044700
     57 H14          3.5040     4.5560     3.8330 ha         1 CM8       0.129000
     58 H18          3.1750     0.2060     3.8010 ha         1 CM8       0.118000
     59 H16          1.7790     2.5880     0.3520 ha         1 CM8       0.134000
     60 H21          0.4540     4.5090     0.7570 hn         1 CM8       0.191500
     61 H22          1.9020     6.8530    -0.4240 h1         1 CM8       0.072700
     62 H231        -0.6760     5.5300    -1.3610 hc         1 CM8       0.026700
     63 H232         0.3940     6.5760    -2.2930 hc         1 CM8       0.026700
     64 H30         -0.9220     6.7970     0.8170 h1         1 CM8       0.007700
     65 H25          3.1400     5.4270    -1.8470 ha         1 CM8       0.114000
     66 H29         -0.7510     3.4010    -2.3860 ha         1 CM8       0.114000
     67 H26          4.3580     3.3730    -2.7040 ha         1 CM8       0.106500
     68 H27          2.9920     1.3490    -3.3930 ha         1 CM8       0.100000
     69 H28          0.4960     1.3520    -3.2490 ha         1 CM8       0.106500
     70 H31         -1.3180     8.3680    -0.6180 ho         1 CM8       0.386000
     71 H321         0.9440     7.3210     2.4010 h1         1 CM8       0.028700
     72 H322         1.5950     8.5090     1.2570 h1         1 CM8       0.028700
     73 H33         -0.9450     8.6260     2.7190 hn         1 CM8       0.247800
     74 H341        -0.2000    10.6990     3.5030 h1         1 CM8       0.008700
     75 H342         1.0470     9.4830     3.7940 h1         1 CM8       0.008700
     76 H36          3.2170    10.3340     3.4760 ha         1 CM8       0.106000
     77 H40          0.0640    11.5790     0.7070 ha         1 CM8       0.126000
     78 H37          4.9110    11.6740     2.1710 ha         1 CM8       0.109000
     79 H38          4.1920    12.9720     0.1220 ha         1 CM8       0.119000
     80 C19          2.4100     5.0580     1.3970 c          1 CM8       0.637700
@<TRIPOS>BOND
     1     1     2 1   
     2     1    45 1   
     3     1    46 1   
     4     1    47 1   
     5     2    41 1   
     6     2    43 1   
     7     2    44 1   
     8     3     4 1   
     9     3    36 1   
    10     3    49 1   
    11     3    50 1   
    12     4     5 1   
    13     4    51 1   
    14     4    52 1   
    15     5     6 2   
    16     5     7 2   
    17     5     8 1   
    18     8     9 1   
    19     8    10 1   
    20     9    36 1   
    21     9    55 1   
    22     9    56 1   
    23    10    11 ar  
    24    10    15 ar  
    25    11    12 ar  
    26    11    57 1   
    27    12    13 ar  
    28    12    80 1   
    29    13    14 ar  
    30    13    59 1   
    31    14    15 ar  
    32    14    41 1   
    33    15    58 1   
    34    16    80 2   
    35    17    18 1   
    36    17    60 1   
    37    17    80 1   
    38    18    19 1   
    39    18    26 1   
    40    18    61 1   
    41    19    20 1   
    42    19    62 1   
    43    19    63 1   
    44    20    21 ar  
    45    20    25 ar  
    46    21    22 ar  
    47    21    66 1   
    48    22    23 ar  
    49    22    69 1   
    50    23    24 ar  
    51    23    68 1   
    52    24    25 ar  
    53    24    67 1   
    54    25    65 1   
    55    26    27 1   
    56    26    28 1   
    57    26    64 1   
    58    27    70 1   
    59    28    29 1   
    60    28    71 1   
    61    28    72 1   
    62    29    30 1   
    63    29    73 1   
    64    30    31 1   
    65    30    74 1   
    66    30    75 1   
    67    31    32 ar  
    68    31    37 ar  
    69    32    33 ar  
    70    32    76 1   
    71    33    34 ar  
    72    33    78 1   
    73    34    35 ar  
    74    34    79 1   
    75    35    37 ar  
    76    35    38 1   
    77    36    53 1   
    78    36    54 1   
    79    37    77 1   
    80    38    39 1   
    81    38    40 1   
    82    38    42 1   
    83    41    48 1   
@<TRIPOS>SUBSTRUCTURE
     1 CM8         1 TEMP              0 ****  ****    0 ROOT
