@<TRIPOS>MOLECULE
molecule
   51    52     1     0     0
SMALL
bcc


@<TRIPOS>ATOM
      1 O1           0.0000     0.0000     0.0000 o          1 CM9      -0.581100
      2 C8           1.2080     0.0000     0.0000 c          1 CM9       0.659100
      3 C9           1.8520     0.0000     1.3650 c3         1 CM9      -0.153700
      4 C10          2.0480     1.3570     2.0220 c3         1 CM9      -0.066900
      5 C11          2.7700     1.2120     3.3620 c3         1 CM9      -0.072900
      6 C12          2.8620    -0.2250     3.8740 c3         1 CM9      -0.070700
      7 C13          3.6730    -0.2630     5.1630 c3         1 CM9      -0.086100
      8 C14          3.4910    -1.1640     2.8400 c3         1 CM9      -0.072900
      9 C15          3.1410    -0.8080     1.3970 c3         1 CM9      -0.066900
     10 N3           1.9110    -0.0580    -1.1470 ns         1 CM9      -0.598900
     11 C7           1.1710    -0.1340    -2.4180 c3         1 CM9       0.023700
     12 C16          2.0310     0.3580    -3.5840 c3         1 CM9      -0.082400
     13 C17          1.9520     1.8840    -3.6690 c3         1 CM9      -0.018300
     14 S            2.7720     2.5430    -5.0970 ss         1 CM9      -0.277200
     15 C18          4.4560     2.4860    -4.5710 c3         1 CM9      -0.035000
     16 C6           0.7130    -1.5730    -2.6110 c          1 CM9       0.671100
     17 O2          -0.2490    -1.8470    -3.3140 o          1 CM9      -0.573100
     18 N2           1.4460    -2.4620    -1.9290 ns         1 CM9      -0.464100
     19 C5           1.2980    -3.8560    -1.8170 ca         1 CM9       0.108600
     20 C1           0.4360    -4.6480    -2.5800 ca         1 CM9      -0.289300
     21 C2           0.3630    -6.0350    -2.3400 ca         1 CM9       0.433700
     22 N1           1.0870    -6.5880    -1.3640 nb         1 CM9      -0.699000
     23 C3           1.9260    -5.8350    -0.6330 ca         1 CM9       0.433700
     24 C4           2.0410    -4.4610    -0.8340 ca         1 CM9      -0.289300
     25 H9           1.1630    -0.5310     2.0100 hc         1 CM9       0.087700
     26 H3           2.8860     0.1690    -1.1480 hn         1 CM9       0.318500
     27 H101         1.0800     1.8150     2.1870 hc         1 CM9       0.041950
     28 H102         2.6380     1.9870     1.3670 hc         1 CM9       0.041950
     29 H151         3.9440    -0.2200     0.9680 hc         1 CM9       0.041950
     30 H152         3.0090    -1.7180     0.8250 hc         1 CM9       0.041950
     31 H111         2.2440     1.8050     4.1000 hc         1 CM9       0.043700
     32 H112         3.7750     1.6010     3.2530 hc         1 CM9       0.043700
     33 H12          1.8580    -0.5750     4.0850 hc         1 CM9       0.051700
     34 H131         3.7470    -1.2860     5.5130 hc         1 CM9       0.036700
     35 H132         3.1820     0.3410     5.9170 hc         1 CM9       0.036700
     36 H133         4.6660     0.1280     4.9770 hc         1 CM9       0.036700
     37 H141         3.1500    -2.1730     3.0380 hc         1 CM9       0.043700
     38 H142         4.5680    -1.1280     2.9520 hc         1 CM9       0.043700
     39 H7           0.2950     0.4990    -2.3460 h1         1 CM9       0.109700
     40 H161         1.6670    -0.0750    -4.5080 hc         1 CM9       0.067200
     41 H162         3.0590     0.0570    -3.4260 hc         1 CM9       0.067200
     42 H171         2.4060     2.3060    -2.7800 h1         1 CM9       0.074200
     43 H172         0.9090     2.1770    -3.7000 h1         1 CM9       0.074200
     44 H181         4.8120     1.4640    -4.6100 h1         1 CM9       0.061033
     45 H182         5.0590     3.1040    -5.2250 h1         1 CM9       0.061033
     46 H183         4.5300     2.8560    -3.5560 h1         1 CM9       0.061033
     47 H2           2.2170    -2.0760    -1.4210 hn         1 CM9       0.325500
     48 H1          -0.1530    -4.2030    -3.3720 ha         1 CM9       0.150500
     49 H4           2.7250    -3.8770    -0.2300 ha         1 CM9       0.150500
     50 HA          -0.3080    -6.6490    -2.9280 h4         1 CM9       0.027100
     51 HB           2.5100    -6.3040     0.1490 h4         1 CM9       0.027100
@<TRIPOS>BOND
     1     1     2 2
     2     2     3 1
     3     2    10 1
     4     3     4 1
     5     3     9 1
     6     4     5 1
     7     5     6 1
     8     6     7 1
     9     6     8 1
    10     8     9 1
    11    10    11 1
    12    11    12 1
    13    11    16 1
    14    12    13 1
    15    13    14 1
    16    14    15 1
    17    16    17 2
    18    16    18 1
    19    18    19 1
    20    19    20 ar
    21    19    24 ar
    22    20    21 ar
    23    21    22 ar
    24    22    23 ar
    25    23    24 ar
    26     3    25 1
    27    10    26 1
    28     4    27 1
    29     4    28 1
    30     9    29 1
    31     9    30 1
    32     5    31 1
    33     5    32 1
    34     6    33 1
    35     7    34 1
    36     7    35 1
    37     7    36 1
    38     8    37 1
    39     8    38 1
    40    11    39 1
    41    12    40 1
    42    12    41 1
    43    13    42 1
    44    13    43 1
    45    15    44 1
    46    15    45 1
    47    15    46 1
    48    18    47 1
    49    20    48 1
    50    24    49 1
    51    21    50 1
    52    23    51 1
@<TRIPOS>SUBSTRUCTURE
     1 CM9         1 TEMP              0 ****  ****    0 ROOT
