@<TRIPOS>MOLECULE
CMA
   34    33     1     0     0
SMALL
bcc


@<TRIPOS>ATOM
      1 CA           1.5300     0.0000     0.0000 c3         1 CMA       0.004500
      2 CB           0.0000     0.0000     0.0000 c3         1 CMA       0.007600
      3 O            2.2330     1.0460     1.9910 o          1 CMA      -0.885300
      4 C            2.0320     0.0000     1.4210 c          1 CMA       0.963600
      5 C1           3.3090    -0.8410    -1.2970 c3         1 CMA       0.147800
      6 C2           3.8790    -2.0500    -2.0380 c3         1 CMA      -0.134400
      7 C3           5.2020    -1.6840    -2.6590 c          1 CMA       0.982600
      8 O1           5.8900    -2.5950    -3.3640 o          1 CMA      -0.914300
      9 O2           5.6430    -0.5680    -2.5220 o          1 CMA      -0.914300
     10 N            2.0190    -1.1990    -0.6920 n7         1 CMA      -0.651200
     11 CG          -0.5090    -0.0010    -1.4430 c3         1 CMA      -0.043400
     12 CD          -2.0400     0.0000    -1.4430 c3         1 CMA       0.144800
     13 NE          -2.5270    -0.0010    -2.8240 nu         1 CMA      -0.450200
     14 CZ          -3.8790     0.0000    -3.0760 c2         1 CMA       0.236100
     15 NH1         -4.3370    -0.0000    -4.3710 nz         1 CMA       0.196400
     16 NH2         -4.7260     0.0010    -2.0840 n2         1 CMA      -0.691100
     17 OXT          2.2550    -1.1620     2.0540 o          1 CMA      -0.885300
     18 HA           1.8910     0.8850    -0.5110 h1         1 CMA       0.033700
     19 HB1         -0.3610    -0.8840     0.5110 hc         1 CMA       0.013700
     20 HB2         -0.3610     0.8850     0.5100 hc         1 CMA       0.013700
     21 H11          3.9990    -0.5350    -0.5190 h1         1 CMA       0.018700
     22 H12          3.1670    -0.0240    -1.9940 h1         1 CMA       0.018700
     23 H21          3.1890    -2.3560    -2.8150 hc         1 CMA       0.002200
     24 H22          4.0220    -2.8670    -1.3400 hc         1 CMA       0.002200
     25 H            2.1540    -1.9360    -0.0290 hn         1 CMA       0.302800
     26 HG1         -0.1470     0.8830    -1.9540 hc         1 CMA       0.036200
     27 HG2         -0.1480    -0.8860    -1.9530 hc         1 CMA       0.036200
     28 HD1         -2.4010    -0.8830    -0.9320 h1         1 CMA       0.030200
     29 HD2         -2.4000     0.8860    -0.9340 h1         1 CMA       0.030200
     30 HE          -1.8770    -0.0070    -3.5840 hn         1 CMA       0.308800
     31 HH11        -4.0000     0.8140    -4.8450 hn         1 CMA       0.215133
     32 HH12        -4.0070    -0.8200    -4.8410 hn         1 CMA       0.215133
     33 HH21        -4.3940     0.0010    -1.1400 hn         1 CMA       0.394400
     34 HH13        -5.3380     0.0040    -4.3710 hn         1 CMA       0.215133
@<TRIPOS>BOND
     1     1     2 1   
     2     1     4 1   
     3     1    10 1   
     4     1    18 1   
     5     2    11 1   
     6     2    19 1   
     7     2    20 1   
     8     3     4 1   
     9     4    17 1   
    10     5     6 1   
    11     5    10 1   
    12     5    21 1   
    13     5    22 1   
    14     6     7 1   
    15     6    23 1   
    16     6    24 1   
    17     7     8 1   
    18     7     9 1   
    19    10    25 1   
    20    11    12 1   
    21    11    26 1   
    22    11    27 1   
    23    12    13 1   
    24    12    28 1   
    25    12    29 1   
    26    13    14 1   
    27    13    30 1   
    28    14    15 1   
    29    14    16 2   
    30    15    31 1   
    31    15    32 1   
    32    15    34 1   
    33    16    33 1   
@<TRIPOS>SUBSTRUCTURE
     1 CMA         1 TEMP              0 ****  ****    0 ROOT
