@<TRIPOS>MOLECULE
molecule
   55    58     1     0     0
SMALL
bcc


@<TRIPOS>ATOM
      1 C1           0.0000     0.0000     0.0000 ca         1 CMB      -0.086000
      2 C2           1.3780     0.0000     0.0000 ca         1 CMB      -0.165000
      3 C3           2.0690     0.0000     1.2090 ca         1 CMB      -0.024200
      4 C4           1.3480     0.0010     2.4180 ca         1 CMB      -0.112800
      5 C5          -0.0530     0.0010     2.3910 ca         1 CMB      -0.016300
      6 C6          -0.7080     0.0000     1.1940 ca         1 CMB      -0.157000
      7 N7           3.4060     0.0010     1.5270 na         1 CMB      -0.041400
      8 C8           3.5360     0.0020     2.9020 cc         1 CMB      -0.136300
      9 C9           2.3000     0.0010     3.4660 cd         1 CMB      -0.133200
     10 C10         -0.8340     0.0000     3.6810 c3         1 CMB      -0.051800
     11 C11          4.8090     0.0020     3.6380 c          1 CMB       0.701300
     12 N12          4.8110    -0.0940     4.9830 ns         1 CMB      -0.563900
     13 C13          6.0690     0.0180     5.7230 c3         1 CMB       0.165300
     14 C14          5.7970    -0.1240     7.1990 ca         1 CMB      -0.111300
     15 C17          4.5110     0.0010     0.5660 c3         1 CMB       0.090600
     16 C18          4.7950     1.4130     0.1260 ca         1 CMB      -0.100300
     17 C21          5.6300     2.2180     0.8810 ca         1 CMB      -0.043000
     18 C22          5.8950     3.5160     0.4830 ca         1 CMB      -0.112000
     19 C23          5.3280     4.0160    -0.6710 ca         1 CMB      -0.126000
     20 C24          4.4850     3.2100    -1.4370 ca         1 CMB      -0.204900
     21 C25          4.2260     1.9010    -1.0340 ca         1 CMB      -0.029000
     22 C26          5.8270    -1.3730     7.7910 ca         1 CMB      -0.108000
     23 C27          5.5790    -1.5040     9.1450 ca         1 CMB       0.033900
     24 C28          5.2990    -0.3840     9.9080 ca         1 CMB      -0.103000
     25 C29          5.2700     0.8660     9.3150 ca         1 CMB       0.033900
     26 C30          5.5240     0.9960     7.9620 ca         1 CMB      -0.108000
     27 C31          3.8740     3.7410    -2.6770 ce         1 CMB       0.547800
     28 N32          3.0880     2.9870    -3.3900 n2         1 CMB      -0.688100
     29 Cl1          5.6160    -3.0730     9.8870 cl         1 CMB      -0.081900
     30 Cl2          4.9190     2.2710    10.2720 cl         1 CMB      -0.081900
     31 O45          5.8610     0.0900     3.0340 o          1 CMB      -0.649100
     32 N53          4.1360     5.0340    -3.0760 nz         1 CMB      -0.802600
     33 HC1         -0.5360    -0.0000    -0.9410 ha         1 CMB       0.134000
     34 HC6         -1.7910     0.0000     1.1760 ha         1 CMB       0.140000
     35 HC9          2.0820     0.0010     4.5280 ha         1 CMB       0.157000
     36 H101        -0.5850    -0.8850     4.2530 hc         1 CMB       0.050367
     37 H102        -1.8950     0.0020     3.4600 hc         1 CMB       0.050367
     38 H103        -0.5830     0.8840     4.2550 hc         1 CMB       0.050367
     39 H12          3.9540    -0.2580     5.4740 hn         1 CMB       0.330500
     40 H131         6.5180     0.9850     5.5300 h1         1 CMB       0.065200
     41 H132         6.7470    -0.7650     5.4040 h1         1 CMB       0.065200
     42 H171         4.2410    -0.5980    -0.2960 h1         1 CMB       0.094700
     43 H172         5.3960    -0.4170     1.0320 h1         1 CMB       0.094700
     44 H21          6.0770     1.8300     1.7880 ha         1 CMB       0.192000
     45 H22          6.5490     4.1410     1.0790 ha         1 CMB       0.159000
     46 H23          5.5350     5.0330    -0.9810 ha         1 CMB       0.102000
     47 H251         3.5720     1.2700    -1.6240 ha         1 CMB       0.167000
     48 H26          6.0460    -2.2500     7.1940 ha         1 CMB       0.151500
     49 H28          5.1020    -0.4860    10.9690 ha         1 CMB       0.166000
     50 H30          5.5010     1.9750     7.4980 ha         1 CMB       0.151500
     51 H32          2.6740     3.3440    -4.2280 hn         1 CMB       0.431400
     52 H531         3.6470     5.2260    -3.9270 hn         1 CMB       0.464800
     53 H532         3.8320     5.6700    -2.3650 hn         1 CMB       0.464800
     54 HC2          1.9210    -0.0000    -0.9370 ha         1 CMB       0.118000
     55 H533         5.1240     5.1600    -3.1710 hn         1 CMB       0.464800
@<TRIPOS>BOND
     1     1     2 ar
     2     1     6 ar
     3     1    33 1
     4     2     3 ar
     5     3     4 ar
     6     3     7 1
     7     4     5 ar
     8     4     9 1
     9     5     6 ar
    10     5    10 1
    11     6    34 1
    12     7     8 1
    13     7    15 1
    14     8     9 2
    15     8    11 1
    16     9    35 1
    17    10    36 1
    18    10    37 1
    19    10    38 1
    20    11    12 1
    21    11    31 2
    22    12    13 1
    23    12    39 1
    24    13    14 1
    25    13    40 1
    26    13    41 1
    27    14    22 ar
    28    14    26 ar
    29    15    16 1
    30    15    42 1
    31    15    43 1
    32    16    17 ar
    33    16    21 ar
    34    17    18 ar
    35    17    44 1
    36    18    19 ar
    37    18    45 1
    38    19    20 ar
    39    19    46 1
    40    20    21 ar
    41    20    27 1
    42    21    47 1
    43    22    23 ar
    44    22    48 1
    45    23    24 ar
    46    23    29 1
    47    24    25 ar
    48    24    49 1
    49    25    26 ar
    50    25    30 1
    51    26    50 1
    52    27    28 2
    53    27    32 1
    54    28    51 1
    55    32    52 1
    56    32    53 1
    57     2    54 1
    58    55    32 1
@<TRIPOS>SUBSTRUCTURE
     1 CMB         1 TEMP              0 ****  ****    0 ROOT
