@<TRIPOS>MOLECULE
CMB
   55    58     1     0     0
SMALL
bcc


@<TRIPOS>ATOM
      1 C1           0.0000     0.0000     0.0000 ca         1 CMB      -0.058000
      2 C2           1.3780     0.0000     0.0000 ca         1 CMB      -0.139000
      3 C3           2.0690     0.0000     1.2090 ca         1 CMB      -0.208200
      4 C4           1.3480     0.0010     2.4180 ca         1 CMB      -0.107800
      5 C5          -0.0530     0.0010     2.3910 ca         1 CMB      -0.009300
      6 C6          -0.7080     0.0000     1.1940 ca         1 CMB      -0.133000
      7 N7           3.4060     0.0010     1.5270 na         1 CMB       0.451600
      8 C8           3.5360     0.0020     2.9020 cc         1 CMB      -0.321300
      9 C9           2.3000     0.0010     3.4660 cd         1 CMB      -0.106200
     10 C10         -0.8340     0.0000     3.6810 c3         1 CMB       0.056200
     11 C11          4.8090     0.0020     3.6380 c          1 CMB       0.630300
     12 N12          4.8110    -0.0940     4.9830 ns         1 CMB      -0.159900
     13 C13          6.0690     0.0180     5.7230 c3         1 CMB       0.110300
     14 C14          5.7970    -0.1240     7.1990 ca         1 CMB      -0.119300
     15 C17          4.5110     0.0010     0.5660 c3         1 CMB      -0.013400
     16 C18          4.7950     1.4130     0.1260 ca         1 CMB      -0.084300
     17 C21          5.6300     2.2180     0.8810 ca         1 CMB      -0.024000
     18 C22          5.8950     3.5160     0.4830 ca         1 CMB      -0.068000
     19 C23          5.3280     4.0160    -0.6710 ca         1 CMB      -0.094000
     20 C24          4.4850     3.2100    -1.4370 ca         1 CMB      -0.236900
     21 C25          4.2260     1.9010    -1.0340 ca         1 CMB      -0.045000
     22 C26          5.8270    -1.3730     7.7910 ca         1 CMB      -0.084500
     23 C27          5.5790    -1.5040     9.1450 ca         1 CMB      -0.031600
     24 C28          5.2990    -0.3840     9.9080 ca         1 CMB      -0.081000
     25 C29          5.2700     0.8660     9.3150 ca         1 CMB      -0.031600
     26 C30          5.5240     0.9960     7.9620 ca         1 CMB      -0.084500
     27 C31          3.8740     3.7410    -2.6770 ce         1 CMB       0.218800
     28 N32          3.0880     2.9870    -3.3900 n2         1 CMB      -0.498100
     29 Cl1          5.6160    -3.0730     9.8870 cl         1 CMB       0.002600
     30 Cl2          4.9190     2.2710    10.2720 cl         1 CMB       0.002600
     31 O45          5.8610     0.0900     3.0340 o          1 CMB      -0.700100
     32 N53          4.1360     5.0340    -3.0760 nz         1 CMB       0.188400
     33 HC1         -0.5360    -0.0000    -0.9410 ha         1 CMB       0.102000
     34 HC6         -1.7910     0.0000     1.1760 ha         1 CMB       0.117000
     35 HC9          2.0820     0.0010     4.5280 ha         1 CMB       0.132000
     36 H101        -0.5840    -0.8840     4.2540 hc         1 CMB       0.013700
     37 H102        -1.8950     0.0010     3.4600 hc         1 CMB       0.013700
     38 H103        -0.5840     0.8850     4.2540 hc         1 CMB       0.013700
     39 H12          3.9540    -0.2580     5.4740 hn         1 CMB       0.188500
     40 H131         6.5180     0.9850     5.5300 h1         1 CMB       0.033200
     41 H132         6.7470    -0.7650     5.4040 h1         1 CMB       0.033200
     42 H171         4.2410    -0.5980    -0.2960 h1         1 CMB       0.067200
     43 H172         5.3960    -0.4170     1.0320 h1         1 CMB       0.067200
     44 H21          6.0770     1.8300     1.7880 ha         1 CMB       0.165000
     45 H22          6.5490     4.1410     1.0790 ha         1 CMB       0.126000
     46 H23          5.5350     5.0330    -0.9810 ha         1 CMB       0.082000
     47 H251         3.5720     1.2700    -1.6240 ha         1 CMB       0.115000
     48 H26          6.0460    -2.2500     7.1940 ha         1 CMB       0.120000
     49 H28          5.1020    -0.4860    10.9690 ha         1 CMB       0.132000
     50 H30          5.5010     1.9750     7.4980 ha         1 CMB       0.120000
     51 H32          2.8950     2.0470    -3.1030 hn         1 CMB       0.381400
     52 H531         5.1200     5.1440    -3.2240 hn         1 CMB       0.221800
     53 H532         3.8330     5.6700    -2.3650 hn         1 CMB       0.221800
     54 HC2          1.9210    -0.0000    -0.9370 ha         1 CMB       0.087000
     55 H533         3.6910     5.2080    -3.9550 hn         1 CMB       0.221800
@<TRIPOS>BOND
     1     1     2 ar  
     2     1     6 ar  
     3     1    33 1   
     4     2     3 ar  
     5     2    54 1   
     6     3     4 ar  
     7     3     7 1   
     8     4     5 ar  
     9     4     9 1   
    10     5     6 ar  
    11     5    10 1   
    12     6    34 1   
    13     7     8 1   
    14     7    15 1   
    15     8     9 2   
    16     8    11 1   
    17     9    35 1   
    18    10    36 1   
    19    10    37 1   
    20    10    38 1   
    21    11    12 1   
    22    11    31 2   
    23    12    13 1   
    24    12    39 1   
    25    13    14 1   
    26    13    40 1   
    27    13    41 1   
    28    14    22 ar  
    29    14    26 ar  
    30    15    16 1   
    31    15    42 1   
    32    15    43 1   
    33    16    17 ar  
    34    16    21 ar  
    35    17    18 ar  
    36    17    44 1   
    37    18    19 ar  
    38    18    45 1   
    39    19    20 ar  
    40    19    46 1   
    41    20    21 ar  
    42    20    27 1   
    43    21    47 1   
    44    22    23 ar  
    45    22    48 1   
    46    23    24 ar  
    47    23    29 1   
    48    24    25 ar  
    49    24    49 1   
    50    25    26 ar  
    51    25    30 1   
    52    26    50 1   
    53    27    28 2   
    54    27    32 1   
    55    28    51 1   
    56    32    52 1   
    57    32    53 1   
    58    32    55 1   
@<TRIPOS>SUBSTRUCTURE
     1 CMB         1 TEMP              0 ****  ****    0 ROOT
