@<TRIPOS>MOLECULE
CMF
   62    66     1     0     0
SMALL
bcc


@<TRIPOS>ATOM
      1 C24          0.0000     0.0000     0.0000 c3         1 CMF       0.013000
      2 C26          1.5320     0.0000     0.0000 c3         1 CMF       0.184400
      3 O4           2.0110     0.0000     1.3440 os         1 CMF      -0.392600
      4 C27          1.6920     1.2640     1.9200 c3         1 CMF       0.184400
      5 C25          0.1790     1.3840     2.0950 c3         1 CMF       0.013000
      6 N2          -0.4600     1.1560     0.7880 n          1 CMF      -0.162800
      7 C23         -1.4230     1.9780     0.3270 c          1 CMF       0.571100
      8 O3          -1.9300     1.7720    -0.7560 o          1 CMF      -0.617100
      9 C22         -1.8730     3.1530     1.1560 c3         1 CMF      -0.116700
     10 N1          -2.9220     3.8840     0.4410 na         1 CMF       0.436600
     11 C1          -4.2750     3.6420     0.5350 ca         1 CMF      -0.216200
     12 C6          -5.0280     2.7320     1.2620 ca         1 CMF      -0.095000
     13 C5          -6.4160     2.7300     1.1400 ca         1 CMF      -0.078600
     14 C8          -7.2190     1.7620     1.9080 c          1 CMF       0.974200
     15 O2          -6.6710     0.9620     2.6400 o          1 CMF      -0.887300
     16 O1          -8.5630     1.7610     1.7960 o          1 CMF      -0.887300
     17 C4          -7.0530     3.6530     0.2950 ca         1 CMF      -0.072000
     18 C3          -6.3230     4.5530    -0.4170 ca         1 CMF      -0.114000
     19 C2          -4.9240     4.5630    -0.3110 ca         1 CMF      -0.100800
     20 C7          -3.9140     5.3550    -0.9070 cc         1 CMF      -0.118400
     21 C16         -4.1280     6.4770    -1.8890 c3         1 CMF       0.043500
     22 C17         -4.8340     5.9370    -3.1330 c3         1 CMF      -0.032900
     23 C20         -5.0520     7.0760    -4.1310 c3         1 CMF      -0.024900
     24 C21         -5.9150     8.1610    -3.4860 c3         1 CMF      -0.025400
     25 C19         -5.2090     8.7020    -2.2420 c3         1 CMF      -0.024900
     26 C18         -4.9910     7.5620    -1.2440 c3         1 CMF      -0.032900
     27 C9          -2.7160     4.9230    -0.4350 cd         1 CMF      -0.220300
     28 C10         -1.3990     5.4810    -0.8070 ca         1 CMF       0.014200
     29 C11         -0.4380     4.6690    -1.4080 ca         1 CMF      -0.106000
     30 C12          0.7890     5.1960    -1.7520 ca         1 CMF      -0.109500
     31 C13          1.0680     6.5280    -1.5010 ca         1 CMF      -0.120000
     32 C14          0.1190     7.3390    -0.9040 ca         1 CMF      -0.109500
     33 C15         -1.1140     6.8250    -0.5610 ca         1 CMF      -0.106000
     34 H241        -0.3640     0.0840    -1.0170 h1         1 CMF       0.038950
     35 H242        -0.3640    -0.9160     0.4500 h1         1 CMF       0.038950
     36 H261         1.8920     0.8860    -0.5090 h1         1 CMF       0.012450
     37 H262         1.8920    -0.8860    -0.5090 h1         1 CMF       0.012450
     38 H271         2.1730     1.3500     2.8870 h1         1 CMF       0.012450
     39 H272         2.0420     2.0540     1.2670 h1         1 CMF       0.012450
     40 H251        -0.0680     2.3770     2.4520 h1         1 CMF       0.038950
     41 H252        -0.1660     0.6400     2.8030 h1         1 CMF       0.038950
     42 H221        -1.0320     3.8120     1.3350 h1         1 CMF       0.048700
     43 H222        -2.2620     2.7990     2.1030 h1         1 CMF       0.048700
     44 H6          -4.5480     2.0960     1.9960 ha         1 CMF       0.116000
     45 H4          -8.1330     3.6450     0.2060 ha         1 CMF       0.129000
     46 H3          -6.8220     5.2620    -1.0670 ha         1 CMF       0.093000
     47 H16         -3.1720     6.9000    -2.1740 hc         1 CMF       0.023700
     48 H171        -5.7920     5.5180    -2.8500 hc         1 CMF       0.026200
     49 H172        -4.2200     5.1700    -3.5910 hc         1 CMF       0.026200
     50 H201        -4.0940     7.4970    -4.4110 hc         1 CMF       0.004950
     51 H202        -5.5540     6.6920    -5.0110 hc         1 CMF       0.004950
     52 H211        -6.8710     7.7380    -3.2020 hc         1 CMF       0.008200
     53 H212        -6.0670     8.9680    -4.1930 hc         1 CMF       0.008200
     54 H191        -5.8230     9.4680    -1.7850 hc         1 CMF       0.004950
     55 H192        -4.2510     9.1200    -2.5260 hc         1 CMF       0.004950
     56 H181        -5.9490     7.1410    -0.9640 hc         1 CMF       0.026200
     57 H182        -4.4880     7.9460    -0.3640 hc         1 CMF       0.026200
     58 H11         -0.6550     3.6260    -1.6060 ha         1 CMF       0.123500
     59 H12          1.5370     4.5670    -2.2200 ha         1 CMF       0.096000
     60 H13          2.0340     6.9370    -1.7710 ha         1 CMF       0.094000
     61 H14          0.3430     8.3810    -0.7120 ha         1 CMF       0.096000
     62 H15         -1.8560     7.4610    -0.0940 ha         1 CMF       0.123500
@<TRIPOS>BOND
     1     1     2 1   
     2     1     6 1   
     3     1    34 1   
     4     1    35 1   
     5     2     3 1   
     6     2    36 1   
     7     2    37 1   
     8     3     4 1   
     9     4     5 1   
    10     4    38 1   
    11     4    39 1   
    12     5     6 1   
    13     5    40 1   
    14     5    41 1   
    15     6     7 1   
    16     7     8 2   
    17     7     9 1   
    18     9    10 1   
    19     9    42 1   
    20     9    43 1   
    21    10    11 1   
    22    10    27 1   
    23    11    12 ar  
    24    11    19 ar  
    25    12    13 ar  
    26    12    44 1   
    27    13    14 1   
    28    13    17 ar  
    29    14    15 1   
    30    14    16 1   
    31    17    18 ar  
    32    17    45 1   
    33    18    19 ar  
    34    18    46 1   
    35    19    20 1   
    36    20    21 1   
    37    20    27 2   
    38    21    22 1   
    39    21    26 1   
    40    21    47 1   
    41    22    23 1   
    42    22    48 1   
    43    22    49 1   
    44    23    24 1   
    45    23    50 1   
    46    23    51 1   
    47    24    25 1   
    48    24    52 1   
    49    24    53 1   
    50    25    26 1   
    51    25    54 1   
    52    25    55 1   
    53    26    56 1   
    54    26    57 1   
    55    27    28 1   
    56    28    29 ar  
    57    28    33 ar  
    58    29    30 ar  
    59    29    58 1   
    60    30    31 ar  
    61    30    59 1   
    62    31    32 ar  
    63    31    60 1   
    64    32    33 ar  
    65    32    61 1   
    66    33    62 1   
@<TRIPOS>SUBSTRUCTURE
     1 CMF         1 TEMP              0 ****  ****    0 ROOT
