@<TRIPOS>MOLECULE
molecule
   35    37     1     0     0
SMALL
bcc


@<TRIPOS>ATOM
      1 N1           0.0000     0.0000     0.0000 nb         1 CMG      -0.841000
      2 C2           1.3270     0.0000     0.0000 ca         1 CMG       0.981900
      3 N3           2.0320     0.0000     1.1200 nb         1 CMG      -0.788000
      4 C4           1.4240    -0.0040     2.3000 ca         1 CMG       0.469800
      5 C5           0.0190    -0.0100     2.3470 ca         1 CMG      -0.175200
      6 C6          -0.6860    -0.0100     1.1340 ca         1 CMG       0.741600
      7 O6          -2.0410    -0.0140     1.1230 os         1 CMG      -0.386100
      8 C9          -2.4420    -0.0130    -0.2480 c3         1 CMG       0.124400
      9 N7          -0.3360    -0.0140     3.6550 nc         1 CMG      -0.558100
     10 C8           0.7340    -0.0120     4.3940 cd         1 CMG       0.413700
     11 N9           1.8470    -0.0050     3.6050 na         1 CMG      -0.362000
     12 N2           1.9960     0.0040    -1.2130 nv         1 CMG      -1.055500
     13 C10         -3.9700    -0.0170    -0.3320 c3         1 CMG      -0.075700
     14 C11         -4.4000    -0.0160    -1.8010 c3         1 CMG      -0.074900
     15 C12         -5.9280    -0.0200    -1.8840 c3         1 CMG      -0.078900
     16 C13         -6.4720    -1.2720    -1.1960 c3         1 CMG      -0.081400
     17 C14         -6.0430    -1.2740     0.2720 c3         1 CMG      -0.078900
     18 C15         -4.5140    -1.2690     0.3570 c3         1 CMG      -0.074900
     19 H92         -2.0560     0.8730    -0.7370 h1         1 CMG       0.057700
     20 H91         -2.0510    -0.8960    -0.7390 h1         1 CMG       0.057700
     21 H8           0.7410    -0.0170     5.4780 h5         1 CMG       0.080800
     22 H9           2.7970    -0.0030     3.9200 hn         1 CMG       0.314700
     23 H22          2.2470     0.8720    -1.6430 hn         1 CMG       0.445800
     24 H21          2.2530    -0.8610    -1.6450 hn         1 CMG       0.445800
     25 H10         -4.3650     0.8640     0.1580 hc         1 CMG       0.062700
     26 H112        -4.0150     0.8720    -2.2870 hc         1 CMG       0.046200
     27 H111        -4.0100    -0.9000    -2.2910 hc         1 CMG       0.046200
     28 H122        -6.3180     0.8610    -1.3890 hc         1 CMG       0.041450
     29 H121        -6.2310    -0.0210    -2.9240 hc         1 CMG       0.041450
     30 H132        -6.0770    -2.1530    -1.6870 hc         1 CMG       0.040200
     31 H131        -7.5530    -1.2740    -1.2540 hc         1 CMG       0.040200
     32 H142        -6.4270    -2.1620     0.7590 hc         1 CMG       0.041450
     33 H141        -6.4330    -0.3900     0.7620 hc         1 CMG       0.041450
     34 H152        -4.1240    -2.1500    -0.1360 hc         1 CMG       0.046200
     35 H151        -4.2120    -1.2660     1.3980 hc         1 CMG       0.046200
@<TRIPOS>BOND
     1     1     2 ar
     2     1     6 ar
     3     2     3 ar
     4     2    12 1
     5     3     4 ar
     6     4     5 ar
     7     4    11 1
     8     5     6 ar
     9     5     9 1
    10     6     7 1
    11     7     8 1
    12     8    13 1
    13     8    19 1
    14     8    20 1
    15     9    10 2
    16    10    11 1
    17    10    21 1
    18    11    22 1
    19    12    23 1
    20    12    24 1
    21    13    14 1
    22    13    18 1
    23    13    25 1
    24    14    15 1
    25    14    26 1
    26    14    27 1
    27    15    16 1
    28    15    28 1
    29    15    29 1
    30    16    17 1
    31    16    30 1
    32    16    31 1
    33    17    18 1
    34    17    32 1
    35    17    33 1
    36    18    34 1
    37    18    35 1
@<TRIPOS>SUBSTRUCTURE
     1 CMG         1 TEMP              0 ****  ****    0 ROOT
