@<TRIPOS>MOLECULE
molecule
   61    64     1     0     0
SMALL
bcc


@<TRIPOS>ATOM
      1 C1           0.0000     0.0000     0.0000 ca         1 CMI      -0.088000
      2 C2           1.3770     0.0000     0.0000 ca         1 CMI      -0.164000
      3 C3           2.0690     0.0000     1.2080 ca         1 CMI      -0.026200
      4 C4           1.3490    -0.0010     2.4180 ca         1 CMI      -0.111800
      5 C5          -0.0510    -0.0000     2.3910 ca         1 CMI      -0.017300
      6 C6          -0.7080    -0.0000     1.1950 ca         1 CMI      -0.157000
      7 N7           3.4060     0.0050     1.5260 na         1 CMI      -0.041400
      8 C8           3.5370    -0.0010     2.9000 cc         1 CMI      -0.132300
      9 C9           2.3020    -0.0010     3.4650 cd         1 CMI      -0.136200
     10 C10         -0.8310     0.0000     3.6810 c3         1 CMI      -0.051800
     11 C11          4.8090    -0.0000     3.6360 c          1 CMI       0.697300
     12 N12          4.8090     0.0170     4.9840 ns         1 CMI      -0.560900
     13 C13          6.0710    -0.1020     5.7180 c3         1 CMI       0.163300
     14 C14          5.7970    -0.0560     7.1990 ca         1 CMI      -0.123300
     15 C17          4.5110     0.0110     0.5640 c3         1 CMI       0.088600
     16 C18          4.8070     1.4300     0.1490 ca         1 CMI      -0.100300
     17 C21          5.6990     2.1920     0.8820 ca         1 CMI      -0.043000
     18 C22          5.9750     3.4940     0.5060 ca         1 CMI      -0.113000
     19 C23          5.3610     4.0400    -0.6020 ca         1 CMI      -0.126000
     20 C24          4.4620     3.2770    -1.3450 ca         1 CMI      -0.203900
     21 C25          4.1910     1.9630    -0.9650 ca         1 CMI      -0.029000
     22 C26          5.7880     1.1560     7.8630 ca         1 CMI      -0.118000
     23 C27          5.5420     1.1980     9.2220 ca         1 CMI      -0.076800
     24 C28          5.2950     0.0280     9.9160 ca         1 CMI      -0.114000
     25 C29          5.3000    -1.1830     9.2520 ca         1 CMI      -0.076800
     26 C30          5.5500    -1.2260     7.8930 ca         1 CMI      -0.118000
     27 C31          3.7990     3.8580    -2.5360 ce         1 CMI       0.546800
     28 N32          4.0720     5.1550    -2.9110 nz         1 CMI      -0.801600
     29 C33          5.5370     2.5200     9.9460 c3         1 CMI      -0.049300
     30 C37          5.0310    -2.4580    10.0090 c3         1 CMI      -0.049300
     31 O45          5.8630    -0.0150     3.0280 o          1 CMI      -0.651100
     32 N53          2.9590     3.1420    -3.2270 n2         1 CMI      -0.687100
     33 HC1         -0.5360    -0.0000    -0.9410 ha         1 CMI       0.133000
     34 HC2          1.9200     0.0000    -0.9370 ha         1 CMI       0.118000
     35 HC6         -1.7910    -0.0000     1.1770 ha         1 CMI       0.139000
     36 HC9          2.0850    -0.0050     4.5260 ha         1 CMI       0.157000
     37 H101        -1.8920     0.0240     3.4610 hc         1 CMI       0.049367
     38 H102        -0.5990    -0.8960     4.2440 hc         1 CMI       0.049367
     39 H103        -0.5640     0.8730     4.2650 hc         1 CMI       0.049367
     40 H12          3.9510     0.1470     5.4820 hn         1 CMI       0.328500
     41 H131         6.7260     0.7160     5.4470 h1         1 CMI       0.060700
     42 H132         6.5460    -1.0430     5.4690 h1         1 CMI       0.060700
     43 H171         4.2350    -0.5700    -0.3080 h1         1 CMI       0.095700
     44 H172         5.3920    -0.4220     1.0230 h1         1 CMI       0.095700
     45 H21          6.1830     1.7670     1.7530 ha         1 CMI       0.191000
     46 H22          6.6750     4.0860     1.0840 ha         1 CMI       0.159000
     47 H23          5.5770     5.0610    -0.8940 ha         1 CMI       0.102000
     48 H25          3.4930     1.3650    -1.5380 ha         1 CMI       0.168000
     49 H26          5.9820     2.0720     7.3190 ha         1 CMI       0.133000
     50 H28          5.1010     0.0610    10.9810 ha         1 CMI       0.139000
     51 H30          5.5540    -2.1760     7.3720 ha         1 CMI       0.133000
     52 H321         3.8040     5.7780    -2.1750 hn         1 CMI       0.464467
     53 H322         5.0510     5.2510    -3.0900 hn         1 CMI       0.464467
     54 H331         4.6470     2.5910    10.5600 hc         1 CMI       0.047367
     55 H332         6.4160     2.5900    10.5760 hc         1 CMI       0.047367
     56 H333         5.5430     3.3270     9.2250 hc         1 CMI       0.047367
     57 H371         5.3250    -3.3070     9.4020 hc         1 CMI       0.047367
     58 H372         5.6010    -2.4580    10.9300 hc         1 CMI       0.047367
     59 H373         3.9750    -2.5260    10.2380 hc         1 CMI       0.047367
     60 H53          2.5110     3.5340    -4.0320 hn         1 CMI       0.430400
     61 H323         3.5570     5.3770    -3.7400 hn         1 CMI       0.464467
@<TRIPOS>BOND
     1     1     2 ar
     2     1     6 ar
     3     1    33 1
     4     2     3 ar
     5     2    34 1
     6     3     4 ar
     7     3     7 1
     8     4     5 ar
     9     4     9 1
    10     5     6 ar
    11     5    10 1
    12     6    35 1
    13     7     8 1
    14     7    15 1
    15     8     9 2
    16     8    11 1
    17     9    36 1
    18    10    37 1
    19    10    38 1
    20    10    39 1
    21    11    12 1
    22    11    31 2
    23    12    13 1
    24    12    40 1
    25    13    14 1
    26    13    41 1
    27    13    42 1
    28    14    22 ar
    29    14    26 ar
    30    15    16 1
    31    15    43 1
    32    15    44 1
    33    16    17 ar
    34    16    21 ar
    35    17    18 ar
    36    17    45 1
    37    18    19 ar
    38    18    46 1
    39    19    20 ar
    40    19    47 1
    41    20    21 ar
    42    20    27 1
    43    21    48 1
    44    22    23 ar
    45    22    49 1
    46    23    24 ar
    47    23    29 1
    48    24    25 ar
    49    24    50 1
    50    25    26 ar
    51    25    30 1
    52    26    51 1
    53    27    28 1
    54    27    32 2
    55    28    52 1
    56    28    53 1
    57    29    54 1
    58    29    55 1
    59    29    56 1
    60    30    57 1
    61    30    58 1
    62    30    59 1
    63    32    60 1
    64    61    28 1
@<TRIPOS>SUBSTRUCTURE
     1 CMI         1 TEMP              0 ****  ****    0 ROOT
