@<TRIPOS>MOLECULE
CMI
   61    64     1     0     0
SMALL
bcc


@<TRIPOS>ATOM
      1 C1           0.0000     0.0000     0.0000 ca         1 CMI      -0.059000
      2 C2           1.3770     0.0000     0.0000 ca         1 CMI      -0.139000
      3 C3           2.0690     0.0000     1.2080 ca         1 CMI      -0.210200
      4 C4           1.3490    -0.0010     2.4180 ca         1 CMI      -0.106800
      5 C5          -0.0510    -0.0000     2.3910 ca         1 CMI      -0.010300
      6 C6          -0.7080    -0.0000     1.1950 ca         1 CMI      -0.133000
      7 N7           3.4060     0.0050     1.5260 na         1 CMI       0.451600
      8 C8           3.5370    -0.0010     2.9000 cc         1 CMI      -0.317300
      9 C9           2.3020    -0.0010     3.4650 cd         1 CMI      -0.109200
     10 C10         -0.8310     0.0000     3.6810 c3         1 CMI       0.056200
     11 C11          4.8090    -0.0000     3.6360 c          1 CMI       0.626300
     12 N12          4.8090     0.0170     4.9840 ns         1 CMI      -0.156900
     13 C13          6.0710    -0.1020     5.7180 c3         1 CMI       0.111300
     14 C14          5.7970    -0.0560     7.1990 ca         1 CMI      -0.133300
     15 C17          4.5110     0.0110     0.5640 c3         1 CMI      -0.017400
     16 C18          4.8070     1.4300     0.1490 ca         1 CMI      -0.083300
     17 C21          5.6990     2.1920     0.8820 ca         1 CMI      -0.022000
     18 C22          5.9750     3.4940     0.5060 ca         1 CMI      -0.068000
     19 C23          5.3610     4.0400    -0.6020 ca         1 CMI      -0.094000
     20 C24          4.4620     3.2770    -1.3450 ca         1 CMI      -0.236900
     21 C25          4.1910     1.9630    -0.9650 ca         1 CMI      -0.046000
     22 C26          5.7880     1.1560     7.8630 ca         1 CMI      -0.093500
     23 C27          5.5420     1.1980     9.2220 ca         1 CMI      -0.080300
     24 C28          5.2950     0.0280     9.9160 ca         1 CMI      -0.087000
     25 C29          5.3000    -1.1830     9.2520 ca         1 CMI      -0.080300
     26 C30          5.5500    -1.2260     7.8930 ca         1 CMI      -0.093500
     27 C31          3.7990     3.8580    -2.5360 ce         1 CMI       0.216800
     28 N32          4.0720     5.1550    -2.9110 nz         1 CMI       0.190400
     29 C33          5.5370     2.5200     9.9460 c3         1 CMI       0.062700
     30 C37          5.0310    -2.4580    10.0090 c3         1 CMI       0.062700
     31 O45          5.8630    -0.0150     3.0280 o          1 CMI      -0.702100
     32 N53          2.9590     3.1420    -3.2270 n2         1 CMI      -0.496100
     33 HC1         -0.5360    -0.0000    -0.9410 ha         1 CMI       0.101000
     34 HC2          1.9200     0.0000    -0.9370 ha         1 CMI       0.087000
     35 HC6         -1.7910    -0.0000     1.1770 ha         1 CMI       0.116000
     36 HC9          2.0850    -0.0050     4.5260 ha         1 CMI       0.133000
     37 H101        -0.5970    -0.8950     4.2450 hc         1 CMI       0.013700
     38 H102        -1.8920     0.0210     3.4610 hc         1 CMI       0.013700
     39 H103        -0.5660     0.8740     4.2630 hc         1 CMI       0.013700
     40 H12          3.9480     0.1300     5.4820 hn         1 CMI       0.187500
     41 H131         6.5460    -1.0430     5.4690 h1         1 CMI       0.031700
     42 H132         6.7260     0.7160     5.4470 h1         1 CMI       0.031700
     43 H171         4.2350    -0.5700    -0.3080 h1         1 CMI       0.069200
     44 H172         5.3920    -0.4220     1.0230 h1         1 CMI       0.069200
     45 H21          6.1830     1.7670     1.7530 ha         1 CMI       0.162000
     46 H22          6.6750     4.0860     1.0840 ha         1 CMI       0.126000
     47 H23          5.5770     5.0610    -0.8940 ha         1 CMI       0.082000
     48 H25          3.4930     1.3650    -1.5380 ha         1 CMI       0.116000
     49 H26          5.9820     2.0720     7.3190 ha         1 CMI       0.109500
     50 H28          5.1010     0.0610    10.9810 ha         1 CMI       0.115000
     51 H30          5.5540    -2.1760     7.3720 ha         1 CMI       0.109500
     52 H321         5.0480     5.2470    -3.1090 hn         1 CMI       0.221133
     53 H322         3.5430     5.3830    -3.7290 hn         1 CMI       0.221133
     54 H331         4.5210     2.8910    10.0110 hc         1 CMI       0.011033
     55 H332         5.9370     2.3860    10.9440 hc         1 CMI       0.011033
     56 H333         6.1480     3.2310     9.4050 hc         1 CMI       0.011033
     57 H371         4.1930    -2.3100    10.6790 hc         1 CMI       0.011033
     58 H372         5.9090    -2.7300    10.5820 hc         1 CMI       0.011033
     59 H373         4.7980    -3.2510     9.3090 hc         1 CMI       0.011033
     60 H53          2.7610     2.2000    -2.9560 hn         1 CMI       0.381400
     61 H323         3.8220     5.7770    -2.1680 hn         1 CMI       0.221133
@<TRIPOS>BOND
     1     1     2 ar  
     2     1     6 ar  
     3     1    33 1   
     4     2     3 ar  
     5     2    34 1   
     6     3     4 ar  
     7     3     7 1   
     8     4     5 ar  
     9     4     9 1   
    10     5     6 ar  
    11     5    10 1   
    12     6    35 1   
    13     7     8 1   
    14     7    15 1   
    15     8     9 2   
    16     8    11 1   
    17     9    36 1   
    18    10    37 1   
    19    10    38 1   
    20    10    39 1   
    21    11    12 1   
    22    11    31 2   
    23    12    13 1   
    24    12    40 1   
    25    13    14 1   
    26    13    41 1   
    27    13    42 1   
    28    14    22 ar  
    29    14    26 ar  
    30    15    16 1   
    31    15    43 1   
    32    15    44 1   
    33    16    17 ar  
    34    16    21 ar  
    35    17    18 ar  
    36    17    45 1   
    37    18    19 ar  
    38    18    46 1   
    39    19    20 ar  
    40    19    47 1   
    41    20    21 ar  
    42    20    27 1   
    43    21    48 1   
    44    22    23 ar  
    45    22    49 1   
    46    23    24 ar  
    47    23    29 1   
    48    24    25 ar  
    49    24    50 1   
    50    25    26 ar  
    51    25    30 1   
    52    26    51 1   
    53    27    28 1   
    54    27    32 2   
    55    28    52 1   
    56    28    53 1   
    57    28    61 1   
    58    29    54 1   
    59    29    55 1   
    60    29    56 1   
    61    30    57 1   
    62    30    58 1   
    63    30    59 1   
    64    32    60 1   
@<TRIPOS>SUBSTRUCTURE
     1 CMI         1 TEMP              0 ****  ****    0 ROOT
