@<TRIPOS>MOLECULE
molecule
  131   130     1     0     0
SMALL
bcc


@<TRIPOS>ATOM
      1 C2           0.0000     0.0000     0.0000 c3         1 CMJ      -0.084400
      2 C4           2.0400    -0.0000    -1.4440 c3         1 CMJ      -0.082400
      3 C5           3.5690    -0.0000    -1.4440 c3         1 CMJ      -0.082400
      4 C6           4.0790    -0.0000    -2.8860 c3         1 CMJ      -0.082400
      5 C43         40.6200     2.7570   -28.8640 c3         1 CMJ      -0.092100
      6 C42         40.1210     2.6320   -27.4220 c3         1 CMJ      -0.084400
      7 C41         38.5960     2.5060   -27.4210 c3         1 CMJ      -0.081400
      8 C40         38.0970     2.3810   -25.9790 c3         1 CMJ      -0.082400
      9 C39         36.5720     2.2560   -25.9780 c3         1 CMJ      -0.082400
     10 C38         36.0730     2.1310   -24.5360 c3         1 CMJ      -0.082400
     11 C37         34.5480     2.0050   -24.5340 c3         1 CMJ      -0.082400
     12 C36         34.0490     1.8800   -23.0930 c3         1 CMJ      -0.081400
     13 C35         32.5240     1.7540   -23.0910 c3         1 CMJ      -0.082400
     14 C34         32.0240     1.6290   -21.6500 c3         1 CMJ      -0.082400
     15 C33         30.5000     1.5030   -21.6480 c3         1 CMJ      -0.081400
     16 C32         30.0000     1.3780   -20.2070 c3         1 CMJ      -0.082400
     17 C31         28.4760     1.2530   -20.2040 c3         1 CMJ      -0.081400
     18 C30         27.9760     1.1270   -18.7640 c3         1 CMJ      -0.082400
     19 C29         26.4520     1.0010   -18.7610 c3         1 CMJ      -0.081400
     20 C28         25.9520     0.8760   -17.3210 c3         1 CMJ      -0.082400
     21 C27         24.4280     0.7500   -17.3180 c3         1 CMJ      -0.082400
     22 C26         23.9290     0.6250   -15.8760 c3         1 CMJ      -0.082400
     23 C25         22.4040     0.4990   -15.8750 c3         1 CMJ      -0.082400
     24 C24         21.9050     0.3740   -14.4330 c3         1 CMJ      -0.082400
     25 C23         20.3800     0.2480   -14.4320 c3         1 CMJ      -0.083400
     26 C22         19.8810     0.1230   -12.9900 c3         1 CMJ      -0.077400
     27 C20         18.3560    -0.0020   -12.9890 c3         1 CMJ      -0.074700
     28 C21         17.9510    -1.3100   -13.6710 c3         1 CMJ      -0.090100
     29 C19         17.8470    -0.0020   -11.5450 c3         1 CMJ      -0.077400
     30 C18         16.3160    -0.0020   -11.5450 c3         1 CMJ      -0.083400
     31 C17         15.8070    -0.0020   -10.1020 c3         1 CMJ      -0.082400
     32 C16         14.2770    -0.0020   -10.1020 c3         1 CMJ      -0.082400
     33 C15         13.7680    -0.0010    -8.6590 c3         1 CMJ      -0.082400
     34 C14         12.2370    -0.0010    -8.6590 c3         1 CMJ      -0.082400
     35 C13         11.7280    -0.0010    -7.2160 c3         1 CMJ      -0.082400
     36 C12         10.1980    -0.0010    -7.2160 c3         1 CMJ      -0.082400
     37 C11          9.6890    -0.0010    -5.7730 c3         1 CMJ      -0.082400
     38 C10          8.1580    -0.0010    -5.7720 c3         1 CMJ      -0.082400
     39 C9           7.6480    -0.0010    -4.3300 c3         1 CMJ      -0.082400
     40 C8           6.1190    -0.0010    -4.3300 c3         1 CMJ      -0.081400
     41 C7           5.6100    -0.0000    -2.8870 c3         1 CMJ      -0.082400
     42 C3           1.5300     0.0000     0.0000 c3         1 CMJ      -0.081400
     43 C1          -0.5100     0.0000     1.4420 c3         1 CMJ      -0.092100
     44 H2          -0.3610     0.8850    -0.5110 hc         1 CMJ       0.039700
     45 H2A         -0.3610    -0.8850    -0.5110 hc         1 CMJ       0.039700
     46 H4           1.6790    -0.8850    -1.9540 hc         1 CMJ       0.040700
     47 H4A          1.6790     0.8840    -1.9550 hc         1 CMJ       0.040700
     48 H5           3.9310     0.8840    -0.9330 hc         1 CMJ       0.040700
     49 H5A          3.9310    -0.8850    -0.9330 hc         1 CMJ       0.040700
     50 H6           3.7180    -0.8850    -3.3970 hc         1 CMJ       0.040700
     51 H6A          3.7180     0.8840    -3.3970 hc         1 CMJ       0.040700
     52 H43         41.6990     2.8530   -28.8650 hc         1 CMJ       0.032367
     53 H43A        40.3360     1.8740   -29.4220 hc         1 CMJ       0.032367
     54 H43B        40.1790     3.6330   -29.3240 hc         1 CMJ       0.032367
     55 H42         40.5560     1.7520   -26.9640 hc         1 CMJ       0.039700
     56 H42A        40.4110     3.5130   -26.8620 hc         1 CMJ       0.039700
     57 H41         38.3060     1.6260   -27.9810 hc         1 CMJ       0.040700
     58 H41A        38.1610     3.3860   -27.8790 hc         1 CMJ       0.040700
     59 H40         38.3870     3.2620   -25.4190 hc         1 CMJ       0.040700
     60 H40A        38.5320     1.5020   -25.5210 hc         1 CMJ       0.040700
     61 H39         36.1360     3.1350   -26.4360 hc         1 CMJ       0.040700
     62 H39A        36.2820     1.3750   -26.5380 hc         1 CMJ       0.040700
     63 H38         36.5080     1.2510   -24.0780 hc         1 CMJ       0.040700
     64 H38A        36.3630     3.0110   -23.9760 hc         1 CMJ       0.040700
     65 H37         34.2570     1.1240   -25.0950 hc         1 CMJ       0.040700
     66 H37A        34.1120     2.8840   -24.9930 hc         1 CMJ       0.040700
     67 H36         34.3390     2.7600   -22.5330 hc         1 CMJ       0.040700
     68 H36A        34.4840     1.0000   -22.6350 hc         1 CMJ       0.040700
     69 H35         32.2330     0.8730   -23.6520 hc         1 CMJ       0.040700
     70 H35A        32.0880     2.6340   -23.5490 hc         1 CMJ       0.040700
     71 H34         32.3150     2.5090   -21.0890 hc         1 CMJ       0.040700
     72 H34A        32.4600     0.7490   -21.1920 hc         1 CMJ       0.040700
     73 H33         30.2090     0.6230   -22.2090 hc         1 CMJ       0.040700
     74 H33A        30.0640     2.3830   -22.1060 hc         1 CMJ       0.040700
     75 H32         30.2910     2.2580   -19.6460 hc         1 CMJ       0.040700
     76 H32A        30.4360     0.4980   -19.7490 hc         1 CMJ       0.040700
     77 H31         28.0410     2.1330   -20.6620 hc         1 CMJ       0.040700
     78 H31A        28.1850     0.3730   -20.7650 hc         1 CMJ       0.040700
     79 H30         28.2670     2.0070   -18.2030 hc         1 CMJ       0.040700
     80 H30A        28.4120     0.2470   -18.3060 hc         1 CMJ       0.040700
     81 H29         26.1620     0.1200   -19.3210 hc         1 CMJ       0.040700
     82 H29A        26.0170     1.8800   -19.2190 hc         1 CMJ       0.040700
     83 H28         26.3880    -0.0030   -16.8620 hc         1 CMJ       0.040700
     84 H28A        26.2420     1.7570   -16.7600 hc         1 CMJ       0.040700
     85 H27         23.9920     1.6300   -17.7760 hc         1 CMJ       0.040700
     86 H27A        24.1380    -0.1300   -17.8780 hc         1 CMJ       0.040700
     87 H26         24.2190     1.5060   -15.3160 hc         1 CMJ       0.040700
     88 H26A        24.3640    -0.2550   -15.4180 hc         1 CMJ       0.040700
     89 H25         22.1140    -0.3810   -16.4350 hc         1 CMJ       0.040700
     90 H25A        21.9690     1.3790   -16.3330 hc         1 CMJ       0.040700
     91 H24         22.1950     1.2550   -13.8730 hc         1 CMJ       0.040700
     92 H24A        22.3400    -0.5050   -13.9750 hc         1 CMJ       0.040700
     93 H23         19.9440     1.1280   -14.8900 hc         1 CMJ       0.042200
     94 H23A        20.0900    -0.6320   -14.9920 hc         1 CMJ       0.042200
     95 H22         20.3160    -0.7560   -12.5320 hc         1 CMJ       0.041700
     96 H22A        20.1710     1.0040   -12.4300 hc         1 CMJ       0.041700
     97 H20         17.9240     0.8340   -13.5250 hc         1 CMJ       0.050700
     98 H21         18.3900    -2.1460   -13.1400 hc         1 CMJ       0.034367
     99 H21A        16.8720    -1.4030   -13.6620 hc         1 CMJ       0.034367
    100 H21B        18.3050    -1.3070   -14.6950 hc         1 CMJ       0.034367
    101 H19         18.2080    -0.8860   -11.0350 hc         1 CMJ       0.041200
    102 H19A        18.2080     0.8830   -11.0350 hc         1 CMJ       0.041200
    103 H18         15.9550    -0.8860   -12.0550 hc         1 CMJ       0.042200
    104 H18A        15.9550     0.8830   -12.0550 hc         1 CMJ       0.042200
    105 H17         16.1680     0.8830    -9.5920 hc         1 CMJ       0.040700
    106 H17A        16.1680    -0.8860    -9.5920 hc         1 CMJ       0.040700
    107 H16         13.9160     0.8820   -10.6130 hc         1 CMJ       0.040700
    108 H16A        13.9160    -0.8870   -10.6130 hc         1 CMJ       0.040700
    109 H15         14.1290    -0.8860    -8.1480 hc         1 CMJ       0.040700
    110 H15A        14.1290     0.8830    -8.1490 hc         1 CMJ       0.040700
    111 H14         11.8760     0.8830    -9.1690 hc         1 CMJ       0.040700
    112 H14A        11.8760    -0.8860    -9.1690 hc         1 CMJ       0.040700
    113 H13         12.0890    -0.8860    -6.7060 hc         1 CMJ       0.040700
    114 H13A        12.0890     0.8830    -6.7060 hc         1 CMJ       0.040700
    115 H12          9.8370    -0.8860    -7.7260 hc         1 CMJ       0.040700
    116 H12A         9.8370     0.8830    -7.7270 hc         1 CMJ       0.040700
    117 H11         10.0500     0.8840    -5.2630 hc         1 CMJ       0.040700
    118 H11A        10.0500    -0.8850    -5.2620 hc         1 CMJ       0.040700
    119 H10          7.7970    -0.8850    -6.2830 hc         1 CMJ       0.040700
    120 H10A         7.7970     0.8840    -6.2830 hc         1 CMJ       0.040700
    121 H9           8.0100     0.8840    -3.8190 hc         1 CMJ       0.040700
    122 H9A          8.0100    -0.8850    -3.8190 hc         1 CMJ       0.040700
    123 H8           5.7580     0.8830    -4.8410 hc         1 CMJ       0.040700
    124 H8A          5.7580    -0.8860    -4.8400 hc         1 CMJ       0.040700
    125 H7           5.9710    -0.8850    -2.3760 hc         1 CMJ       0.040700
    126 H7A          5.9710     0.8840    -2.3770 hc         1 CMJ       0.040700
    127 H3           1.8910     0.8850     0.5100 hc         1 CMJ       0.040700
    128 H3A          1.8910    -0.8840     0.5110 hc         1 CMJ       0.040700
    129 H1          -0.1380    -0.8780     1.9570 hc         1 CMJ       0.032367
    130 H1A         -1.5930    -0.0120     1.4430 hc         1 CMJ       0.032367
    131 H1B         -0.1590     0.8910     1.9490 hc         1 CMJ       0.032367
@<TRIPOS>BOND
     1     1    42 1
     2     1    43 1
     3     2     3 1
     4     2    42 1
     5     3     4 1
     6     4    41 1
     7     5     6 1
     8     6     7 1
     9     7     8 1
    10     8     9 1
    11     9    10 1
    12    10    11 1
    13    11    12 1
    14    12    13 1
    15    13    14 1
    16    14    15 1
    17    15    16 1
    18    16    17 1
    19    17    18 1
    20    18    19 1
    21    19    20 1
    22    20    21 1
    23    21    22 1
    24    22    23 1
    25    23    24 1
    26    24    25 1
    27    25    26 1
    28    26    27 1
    29    27    28 1
    30    27    29 1
    31    29    30 1
    32    30    31 1
    33    31    32 1
    34    32    33 1
    35    33    34 1
    36    34    35 1
    37    35    36 1
    38    36    37 1
    39    37    38 1
    40    38    39 1
    41    39    40 1
    42    40    41 1
    43     1    44 1
    44     1    45 1
    45     2    46 1
    46     2    47 1
    47     3    48 1
    48     3    49 1
    49     4    50 1
    50     4    51 1
    51     5    52 1
    52     5    53 1
    53     5    54 1
    54     6    55 1
    55     6    56 1
    56     7    57 1
    57     7    58 1
    58     8    59 1
    59     8    60 1
    60     9    61 1
    61     9    62 1
    62    10    63 1
    63    10    64 1
    64    11    65 1
    65    11    66 1
    66    12    67 1
    67    12    68 1
    68    13    69 1
    69    13    70 1
    70    14    71 1
    71    14    72 1
    72    15    73 1
    73    15    74 1
    74    16    75 1
    75    16    76 1
    76    17    77 1
    77    17    78 1
    78    18    79 1
    79    18    80 1
    80    19    81 1
    81    19    82 1
    82    20    83 1
    83    20    84 1
    84    21    85 1
    85    21    86 1
    86    22    87 1
    87    22    88 1
    88    23    89 1
    89    23    90 1
    90    24    91 1
    91    24    92 1
    92    25    93 1
    93    25    94 1
    94    26    95 1
    95    26    96 1
    96    27    97 1
    97    28    98 1
    98    28    99 1
    99    28   100 1
   100    29   101 1
   101    29   102 1
   102    30   103 1
   103    30   104 1
   104    31   105 1
   105    31   106 1
   106    32   107 1
   107    32   108 1
   108    33   109 1
   109    33   110 1
   110    34   111 1
   111    34   112 1
   112    35   113 1
   113    35   114 1
   114    36   115 1
   115    36   116 1
   116    37   117 1
   117    37   118 1
   118    38   119 1
   119    38   120 1
   120    39   121 1
   121    39   122 1
   122    40   123 1
   123    40   124 1
   124    41   125 1
   125    41   126 1
   126    42   127 1
   127    42   128 1
   128    43   129 1
   129    43   130 1
   130    43   131 1
@<TRIPOS>SUBSTRUCTURE
     1 CMJ         1 TEMP              0 ****  ****    0 ROOT
