@<TRIPOS>MOLECULE
CMJ
  131   130     1     0     0
SMALL
bcc


@<TRIPOS>ATOM
      1 C2          0.4330    1.2500    0.2700 c3        1 CMJ     -0.080400
      2 C4          2.4020    0.9950   -1.2500 c3        1 CMJ     -0.079400
      3 C5          3.9010    0.7980   -1.3310 c3        1 CMJ     -0.079400
      4 C6          4.3700    0.7370   -2.7690 c3        1 CMJ     -0.079400
      5 C43        40.6480    3.9430  -28.3100 c3        1 CMJ     -0.092100
      6 C42        40.0970    3.6770  -26.9330 c3        1 CMJ     -0.080400
      7 C41        38.5970    3.4770  -26.9630 c3        1 CMJ     -0.079400
      8 C40        38.0490    3.2090  -25.5780 c3        1 CMJ     -0.079400
      9 C39        36.5490    3.0100  -25.6090 c3        1 CMJ     -0.079400
     10 C38        36.0010    2.7410  -24.2240 c3        1 CMJ     -0.079400
     11 C37        34.5010    2.5390  -24.2560 c3        1 CMJ     -0.079400
     12 C36        33.9530    2.2700  -22.8700 c3        1 CMJ     -0.079400
     13 C35        32.4540    2.0660  -22.9020 c3        1 CMJ     -0.079400
     14 C34        31.9070    1.7940  -21.5170 c3        1 CMJ     -0.079400
     15 C33        30.4080    1.5880  -21.5480 c3        1 CMJ     -0.079400
     16 C32        29.8620    1.3130  -20.1640 c3        1 CMJ     -0.079400
     17 C31        28.3630    1.1050  -20.1950 c3        1 CMJ     -0.079400
     18 C30        27.8180    0.8260  -18.8110 c3        1 CMJ     -0.079400
     19 C29        26.3190    0.6160  -18.8420 c3        1 CMJ     -0.079400
     20 C28        25.7750    0.3330  -17.4580 c3        1 CMJ     -0.079400
     21 C27        24.2770    0.1200  -17.4890 c3        1 CMJ     -0.079400
     22 C26        23.7340   -0.1670  -16.1060 c3        1 CMJ     -0.079400
     23 C25        22.2360   -0.3830  -16.1370 c3        1 CMJ     -0.079400
     24 C24        21.6940   -0.6760  -14.7540 c3        1 CMJ     -0.079400
     25 C23        20.1960   -0.8930  -14.7860 c3        1 CMJ     -0.079400
     26 C22        19.6610   -1.2050  -13.4050 c3        1 CMJ     -0.076400
     27 C20        18.1450   -1.3570  -13.3880 c3        1 CMJ     -0.064700
     28 C21        17.7240   -2.6490  -14.0560 c3        1 CMJ     -0.089100
     29 C19        17.6380   -1.2970  -11.9530 c3        1 CMJ     -0.076400
     30 C18        16.1460   -1.0530  -11.8780 c3        1 CMJ     -0.079400
     31 C17        15.6830   -0.9430  -10.4400 c3        1 CMJ     -0.079400
     32 C16        14.1890   -0.7150  -10.3600 c3        1 CMJ     -0.079400
     33 C15        13.7250   -0.6130   -8.9230 c3        1 CMJ     -0.079400
     34 C14        12.2290   -0.3930   -8.8420 c3        1 CMJ     -0.079400
     35 C13        11.7640   -0.3010   -7.4050 c3        1 CMJ     -0.079400
     36 C12        10.2680   -0.0900   -7.3240 c3        1 CMJ     -0.079400
     37 C11         9.8010   -0.0080   -5.8870 c3        1 CMJ     -0.079400
     38 C10         8.3030    0.1980   -5.8060 c3        1 CMJ     -0.079400
     39 C9          7.8350    0.2720   -4.3680 c3        1 CMJ     -0.079400
     40 C8          6.3370    0.4730   -4.2880 c3        1 CMJ     -0.079400
     41 C7          5.8680    0.5390   -2.8500 c3        1 CMJ     -0.079400
     42 C3          1.9320    1.0540    0.1870 c3        1 CMJ     -0.079400
     43 C1         -0.0390    1.3080    1.6990 c3        1 CMJ     -0.092100
     44 H2         -0.0840    0.4090   -0.2640 hc        1 CMJ      0.038700
     45 H2A         0.1510    2.1980   -0.2590 hc        1 CMJ      0.038700
     46 H4          1.8830    0.1540   -1.7810 hc        1 CMJ      0.039700
     47 H4A         2.1180    1.9430   -1.7780 hc        1 CMJ      0.039700
     48 H5          4.1850   -0.1490   -0.8020 hc        1 CMJ      0.039700
     49 H5A         4.4190    1.6410   -0.8020 hc        1 CMJ      0.039700
     50 H6          4.0870    1.6850   -3.2980 hc        1 CMJ      0.039700
     51 H6A         3.8500   -0.1050   -3.2980 hc        1 CMJ      0.039700
     52 H43        41.7540    4.0870  -28.2650 hc        1 CMJ      0.032700
     53 H43A       40.4310    3.0870  -28.9940 hc        1 CMJ      0.032700
     54 H43B       40.1900    4.8640  -28.7470 hc        1 CMJ      0.032700
     55 H42        40.3460    4.5360  -26.2550 hc        1 CMJ      0.038700
     56 H42A       40.5870    2.7640  -26.5010 hc        1 CMJ      0.038700
     57 H41        38.1050    4.3890  -27.3920 hc        1 CMJ      0.039700
     58 H41A       38.3460    2.6180  -27.6390 hc        1 CMJ      0.039700
     59 H40        38.2990    4.0690  -24.9010 hc        1 CMJ      0.039700
     60 H40A       38.5410    2.2970  -25.1480 hc        1 CMJ      0.039700
     61 H39        36.0560    3.9220  -26.0380 hc        1 CMJ      0.039700
     62 H39A       36.2980    2.1500  -26.2860 hc        1 CMJ      0.039700
     63 H38        36.2500    3.6010  -23.5480 hc        1 CMJ      0.039700
     64 H38A       36.4940    1.8290  -23.7950 hc        1 CMJ      0.039700
     65 H37        34.2510    1.6800  -24.9330 hc        1 CMJ      0.039700
     66 H37A       34.0080    3.4520  -24.6840 hc        1 CMJ      0.039700
     67 H36        34.4480    1.3580  -22.4420 hc        1 CMJ      0.039700
     68 H36A       34.2020    3.1290  -22.1940 hc        1 CMJ      0.039700
     69 H35        31.9590    2.9780  -23.3290 hc        1 CMJ      0.039700
     70 H35A       32.2050    1.2070  -23.5800 hc        1 CMJ      0.039700
     71 H34        32.4030    0.8830  -21.0890 hc        1 CMJ      0.039700
     72 H34A       32.1550    2.6530  -20.8390 hc        1 CMJ      0.039700
     73 H33        30.1600    0.7300  -22.2270 hc        1 CMJ      0.039700
     74 H33A       29.9120    2.5000  -21.9740 hc        1 CMJ      0.039700
     75 H32        30.1080    2.1710  -19.4850 hc        1 CMJ      0.039700
     76 H32A       30.3590    0.4020  -19.7380 hc        1 CMJ      0.039700
     77 H31        28.1160    0.2480  -20.8760 hc        1 CMJ      0.039700
     78 H31A       27.8660    2.0170  -20.6180 hc        1 CMJ      0.039700
     79 H30        28.3170   -0.0850  -18.3870 hc        1 CMJ      0.039700
     80 H30A       28.0630    1.6840  -18.1300 hc        1 CMJ      0.039700
     81 H29        26.0740   -0.2400  -19.5240 hc        1 CMJ      0.039700
     82 H29A       25.8200    1.5280  -19.2630 hc        1 CMJ      0.039700
     83 H28        26.0190    1.1900  -16.7760 hc        1 CMJ      0.039700
     84 H28A       26.2760   -0.5780  -17.0360 hc        1 CMJ      0.039700
     85 H27        23.7760    1.0330  -17.9080 hc        1 CMJ      0.039700
     86 H27A       24.0330   -0.7340  -18.1740 hc        1 CMJ      0.039700
     87 H26        23.9760    0.6890  -15.4210 hc        1 CMJ      0.039700
     88 H26A       24.2360   -1.0780  -15.6860 hc        1 CMJ      0.039700
     89 H25        21.9940   -1.2350  -16.8250 hc        1 CMJ      0.039700
     90 H25A       21.7330    0.5300  -16.5520 hc        1 CMJ      0.039700
     91 H24        21.9370    0.1770  -14.0670 hc        1 CMJ      0.039700
     92 H24A       22.1980   -1.5890  -14.3390 hc        1 CMJ      0.039700
     93 H23        19.6920    0.0250  -15.1880 hc        1 CMJ      0.040200
     94 H23A       19.9570   -1.7360  -15.4870 hc        1 CMJ      0.040200
     95 H22        20.1340   -2.1470  -13.0210 hc        1 CMJ      0.039700
     96 H22A       19.9580   -0.3770  -12.7070 hc        1 CMJ      0.039700
     97 H20        17.6970   -0.4960  -13.9600 hc        1 CMJ      0.047700
     98 H21        18.0730   -2.6730  -15.1170 hc        1 CMJ      0.033700
     99 H21A       16.6120   -2.7470  -14.0520 hc        1 CMJ      0.033700
    100 H21B       18.1580   -3.5290  -13.5220 hc        1 CMJ      0.033700
    101 H19        18.1670   -0.4710  -11.4070 hc        1 CMJ      0.039700
    102 H19A       17.8910   -2.2560  -11.4280 hc        1 CMJ      0.039700
    103 H18        15.5960   -1.8900  -12.3820 hc        1 CMJ      0.040200
    104 H18A       15.8890   -0.1100  -12.4280 hc        1 CMJ      0.040200
    105 H17        15.9510   -1.8810   -9.8860 hc        1 CMJ      0.039700
    106 H17A       16.2200   -0.0960   -9.9350 hc        1 CMJ      0.039700
    107 H16        13.6520   -1.5590  -10.8690 hc        1 CMJ      0.039700
    108 H16A       13.9220    0.2260  -10.9100 hc        1 CMJ      0.039700
    109 H15        14.2570    0.2350   -8.4150 hc        1 CMJ      0.039700
    110 H15A       13.9980   -1.5510   -8.3720 hc        1 CMJ      0.039700
    111 H14        11.6980   -1.2370   -9.3560 hc        1 CMJ      0.039700
    112 H14A       11.9570    0.5490   -9.3870 hc        1 CMJ      0.039700
    113 H13        12.2920    0.5450   -6.8920 hc        1 CMJ      0.039700
    114 H13A       12.0400   -1.2420   -6.8590 hc        1 CMJ      0.039700
    115 H12         9.9920    0.8550   -7.8640 hc        1 CMJ      0.039700
    116 H12A        9.7400   -0.9330   -7.8430 hc        1 CMJ      0.039700
    117 H11        10.3250    0.8380   -5.3690 hc        1 CMJ      0.039700
    118 H11A       10.0800   -0.9500   -5.3460 hc        1 CMJ      0.039700
    119 H10         8.0240    1.1440   -6.3410 hc        1 CMJ      0.039700
    120 H10A        7.7790   -0.6440   -6.3300 hc        1 CMJ      0.039700
    121 H9          8.1170   -0.6730   -3.8330 hc        1 CMJ      0.039700
    122 H9A         8.3570    1.1160   -3.8450 hc        1 CMJ      0.039700
    123 H8          6.0560    1.4200   -4.8190 hc        1 CMJ      0.039700
    124 H8A         5.8160   -0.3690   -4.8150 hc        1 CMJ      0.039700
    125 H7          6.1520   -0.4070   -2.3180 hc        1 CMJ      0.039700
    126 H7A         6.3880    1.3820   -2.3230 hc        1 CMJ      0.039700
    127 H3          2.4500    1.8950    0.7180 hc        1 CMJ      0.039700
    128 H3A         2.2160    0.1050    0.7150 hc        1 CMJ      0.039700
    129 H1          0.4460    2.1550    2.2410 hc        1 CMJ      0.032700
    130 H1A        -1.1460    1.4530    1.7370 hc        1 CMJ      0.032700
    131 H1B         0.2110    0.3610    2.2360 hc        1 CMJ      0.032700
@<TRIPOS>BOND
     1    1   42 1   
     2    1   43 1   
     3    1   44 1   
     4    1   45 1   
     5    2    3 1   
     6    2   42 1   
     7    2   46 1   
     8    2   47 1   
     9    3    4 1   
    10    3   48 1   
    11    3   49 1   
    12    4   41 1   
    13    4   50 1   
    14    4   51 1   
    15    5    6 1   
    16    5   52 1   
    17    5   53 1   
    18    5   54 1   
    19    6    7 1   
    20    6   55 1   
    21    6   56 1   
    22    7    8 1   
    23    7   57 1   
    24    7   58 1   
    25    8    9 1   
    26    8   59 1   
    27    8   60 1   
    28    9   10 1   
    29    9   61 1   
    30    9   62 1   
    31   10   11 1   
    32   10   63 1   
    33   10   64 1   
    34   11   12 1   
    35   11   65 1   
    36   11   66 1   
    37   12   13 1   
    38   12   67 1   
    39   12   68 1   
    40   13   14 1   
    41   13   69 1   
    42   13   70 1   
    43   14   15 1   
    44   14   71 1   
    45   14   72 1   
    46   15   16 1   
    47   15   73 1   
    48   15   74 1   
    49   16   17 1   
    50   16   75 1   
    51   16   76 1   
    52   17   18 1   
    53   17   77 1   
    54   17   78 1   
    55   18   19 1   
    56   18   79 1   
    57   18   80 1   
    58   19   20 1   
    59   19   81 1   
    60   19   82 1   
    61   20   21 1   
    62   20   83 1   
    63   20   84 1   
    64   21   22 1   
    65   21   85 1   
    66   21   86 1   
    67   22   23 1   
    68   22   87 1   
    69   22   88 1   
    70   23   24 1   
    71   23   89 1   
    72   23   90 1   
    73   24   25 1   
    74   24   91 1   
    75   24   92 1   
    76   25   26 1   
    77   25   93 1   
    78   25   94 1   
    79   26   27 1   
    80   26   95 1   
    81   26   96 1   
    82   27   28 1   
    83   27   29 1   
    84   27   97 1   
    85   28   98 1   
    86   28   99 1   
    87   28  100 1   
    88   29   30 1   
    89   29  101 1   
    90   29  102 1   
    91   30   31 1   
    92   30  103 1   
    93   30  104 1   
    94   31   32 1   
    95   31  105 1   
    96   31  106 1   
    97   32   33 1   
    98   32  107 1   
    99   32  108 1   
   100   33   34 1   
   101   33  109 1   
   102   33  110 1   
   103   34   35 1   
   104   34  111 1   
   105   34  112 1   
   106   35   36 1   
   107   35  113 1   
   108   35  114 1   
   109   36   37 1   
   110   36  115 1   
   111   36  116 1   
   112   37   38 1   
   113   37  117 1   
   114   37  118 1   
   115   38   39 1   
   116   38  119 1   
   117   38  120 1   
   118   39   40 1   
   119   39  121 1   
   120   39  122 1   
   121   40   41 1   
   122   40  123 1   
   123   40  124 1   
   124   41  125 1   
   125   41  126 1   
   126   42  127 1   
   127   42  128 1   
   128   43  129 1   
   129   43  130 1   
   130   43  131 1   
@<TRIPOS>SUBSTRUCTURE
     1 CMJ         1 TEMP              0 ****  ****    0 ROOT
