@<TRIPOS>MOLECULE
molecule
   26    26     1     0     0
SMALL
bcc


@<TRIPOS>ATOM
      1 C1           0.0000     0.0000     0.0000 c3         1 CMN       0.145700
      2 C2           1.5300     0.0000     0.0000 c3         1 CMN       0.110100
      3 C3           2.0170     0.0000     1.4500 c3         1 CMN       0.128100
      4 C4           1.6440     1.3400     2.0850 c3         1 CMN       0.155300
      5 C5           0.2000     1.6510     1.8250 c2         1 CMN      -0.030400
      6 C6          -0.4610     2.7040     2.6770 c3         1 CMN       0.169600
      7 C7          -0.5150     1.0710     0.9150 c2         1 CMN      -0.262200
      8 N1          -0.4870    -1.3070     0.4590 nz         1 CMN      -0.806600
      9 O2           2.0120    -1.1670    -0.6680 oh         1 CMN      -0.617800
     10 O3           3.4350    -0.1700     1.4850 oh         1 CMN      -0.574800
     11 O4           1.8690     1.2740     3.4940 oh         1 CMN      -0.590800
     12 O6          -1.8250     2.8530     2.2790 oh         1 CMN      -0.623800
     13 H1          -0.3570     0.1880    -1.0050 hx         1 CMN       0.120700
     14 H2           1.8920     0.8880    -0.5030 h1         1 CMN       0.101700
     15 H3           1.5360    -0.8040     1.9930 h1         1 CMN       0.035700
     16 H4           2.2590     2.1220     1.6560 h1         1 CMN       0.086700
     17 H62         -0.4190     2.4050     3.7180 h1         1 CMN       0.065700
     18 H61          0.0560     3.6470     2.5520 h1         1 CMN       0.065700
     19 H7          -1.5480     1.3790     0.8070 ha         1 CMN       0.191000
     20 H12         -1.4210    -1.4500     0.1270 hn         1 CMN       0.459133
     21 H11         -0.4820    -1.3330     1.4590 hn         1 CMN       0.459133
     22 H2O1         2.5010    -0.9120    -1.4330 ho         1 CMN       0.452000
     23 H3O1         3.6510    -0.8910     2.0540 ho         1 CMN       0.433000
     24 H4O1         2.6300     1.7840     3.7160 ho         1 CMN       0.434000
     25 H6          -2.2350     3.5180     2.8060 ho         1 CMN       0.434000
     26 H13          0.1080    -2.0290     0.1020 hn         1 CMN       0.459133
@<TRIPOS>BOND
     1     1     2 1
     2     1     7 1
     3     1     8 1
     4     1    13 1
     5     2     3 1
     6     2     9 1
     7     2    14 1
     8     3     4 1
     9     3    10 1
    10     3    15 1
    11     4     5 1
    12     4    11 1
    13     4    16 1
    14     5     6 1
    15     5     7 2
    16     6    12 1
    17     6    17 1
    18     6    18 1
    19     7    19 1
    20     8    20 1
    21     8    21 1
    22     9    22 1
    23    10    23 1
    24    11    24 1
    25    12    25 1
    26    26     8 1
@<TRIPOS>SUBSTRUCTURE
     1 CMN         1 TEMP              0 ****  ****    0 ROOT
