@<TRIPOS>MOLECULE
CMO
    2     1     1     0     0
SMALL
bcc


@<TRIPOS>ATOM
      1 C           0.5890    0.0010    0.0000 c1        1 CMO      0.199000
      2 O          -0.5820   -0.0010   -0.0000 o         1 CMO     -0.199000
@<TRIPOS>BOND
     1    1    2 1
@<TRIPOS>SUBSTRUCTURE
     1 CMO         1 TEMP              0 ****  ****    0 ROOT
