@<TRIPOS>MOLECULE
molecule
   34    37     1     0     0
SMALL
bcc


@<TRIPOS>ATOM
      1 P            0.0000     0.0000     0.0000 p5         1 CMP       1.515500
      2 O1P         -0.4870     1.2680     0.5860 o          1 CMP      -0.796300
      3 O2P         -0.5290    -0.1180    -1.5160 oh         1 CMP      -0.685400
      4 O5'          1.6060     0.0000     0.0000 os         1 CMP      -0.495200
      5 C5'          2.0620     0.0000     1.3600 c3         1 CMP       0.143400
      6 C4'          1.5060    -1.2410     2.0340 c3         1 CMP       0.035100
      7 O4'          1.9140    -1.4480     3.3860 os         1 CMP      -0.384600
      8 C3'         -0.0310    -1.0780     2.1570 c3         1 CMP       0.083100
      9 O3'         -0.5770    -1.2370     0.8620 os         1 CMP      -0.502200
     10 C2'         -0.3680    -2.1950     3.1600 c3         1 CMP       0.119100
     11 O2'         -0.7310    -3.3950     2.4740 oh         1 CMP      -0.570800
     12 C1'          0.9530    -2.3730     3.9450 c3         1 CMP       0.245800
     13 N9           0.7360    -2.0720     5.3620 na         1 CMP      -0.264000
     14 C8           0.8630    -0.8530     5.9550 cc         1 CMP       0.430700
     15 N7           0.5970    -0.9460     7.2260 nd         1 CMP      -0.576100
     16 C5           0.2770    -2.2280     7.5260 ca         1 CMP      -0.194200
     17 C6          -0.0800    -2.9080     8.7030 ca         1 CMP       0.788200
     18 N6          -0.1820    -2.2330     9.9080 nv         1 CMP      -1.001500
     19 N1          -0.3250    -4.2110     8.6310 nb         1 CMP      -0.817000
     20 C2          -0.2320    -4.8620     7.4880 ca         1 CMP       0.736900
     21 N3           0.1050    -4.2690     6.3620 nb         1 CMP      -0.790000
     22 C4           0.3690    -2.9660     6.3360 ca         1 CMP       0.465800
     23 HOP2        -1.4700    -0.1770    -1.5170 ho         1 CMP       0.468000
     24 H5'1         3.1450    -0.0260     1.3830 h1         1 CMP       0.092200
     25 H5'2         1.7000     0.8860     1.8680 h1         1 CMP       0.092200
     26 H4'          1.7370    -2.1180     1.4410 h1         1 CMP       0.090700
     27 H3'         -0.2810    -0.1060     2.5650 h1         1 CMP       0.104700
     28 H2'         -1.1620    -1.8770     3.8260 h1         1 CMP       0.075700
     29 HO2'        -1.5960    -3.6600     2.7400 ho         1 CMP       0.422000
     30 H1'          1.3130    -3.3880     3.8300 h2         1 CMP       0.118700
     31 H8           1.1460     0.0600     5.4450 h5         1 CMP       0.088800
     32 HN61         0.0560    -2.6960    10.7620 hn         1 CMP       0.450300
     33 HN62        -0.5280    -1.2940     9.9270 hn         1 CMP       0.450300
     34 H2          -0.4410    -5.9250     7.4750 h5         1 CMP       0.064100
@<TRIPOS>BOND
     1     1     2 2
     2     1     3 1
     3     1     4 1
     4     1     9 1
     5     3    23 1
     6     4     5 1
     7     5     6 1
     8     5    24 1
     9     5    25 1
    10     6     7 1
    11     6     8 1
    12     6    26 1
    13     7    12 1
    14     8     9 1
    15     8    10 1
    16     8    27 1
    17    10    11 1
    18    10    12 1
    19    10    28 1
    20    11    29 1
    21    12    13 1
    22    12    30 1
    23    13    14 1
    24    13    22 1
    25    14    15 2
    26    14    31 1
    27    15    16 1
    28    16    17 ar
    29    16    22 ar
    30    17    18 1
    31    17    19 ar
    32    18    32 1
    33    18    33 1
    34    19    20 ar
    35    20    21 ar
    36    20    34 1
    37    21    22 ar
@<TRIPOS>SUBSTRUCTURE
     1 CMP         1 TEMP              0 ****  ****    0 ROOT
