@<TRIPOS>MOLECULE
CMQ
   63    64     1     0     0
SMALL
bcc


@<TRIPOS>ATOM
      1 O2           0.0000     0.0000     0.0000 o          1 CMQ      -0.675000
      2 C1           1.2160     0.0000     0.0000 c          1 CMQ       0.683100
      3 O1           1.8890     0.0000     1.1650 os         1 CMQ      -0.425900
      4 C2           1.1640    -0.0000     2.4230 c3         1 CMQ       0.310700
      5 C3           2.1430     0.0010     3.5680 ca         1 CMQ      -0.119300
      6 C4           2.5930     1.1980     4.0920 ca         1 CMQ      -0.073500
      7 C5           3.4920     1.1990     5.1430 ca         1 CMQ      -0.107000
      8 C6           3.9410     0.0010     5.6690 ca         1 CMQ      -0.091000
      9 C7           3.4910    -1.1960     5.1450 ca         1 CMQ      -0.107000
     10 C8           2.5890    -1.1960     4.0980 ca         1 CMQ      -0.073500
     11 N1           1.8890    -0.0010    -1.1680 ns         1 CMQ      -0.152900
     12 C9           1.1600     0.1120    -2.4340 c3         1 CMQ      -0.049300
     13 C11          0.8780     1.5870    -2.7300 c3         1 CMQ      -0.039400
     14 C12         -0.0030     1.6980    -3.9750 c3         1 CMQ      -0.082700
     15 C13         -1.3770     1.0890    -3.6850 c3         1 CMQ       0.005900
     16 C14         -0.1690     3.1710    -4.3550 c3         1 CMQ       0.005900
     17 C10          1.9900    -0.4730    -3.5460 c          1 CMQ       0.572100
     18 O3           3.1850    -0.6220    -3.3960 o          1 CMQ      -0.662100
     19 N2           1.4060    -0.8320    -4.7060 ns         1 CMQ      -0.171900
     20 C15          2.2180    -1.3820    -5.7960 c3         1 CMQ       0.010700
     21 C16          2.8120    -0.2360    -6.6180 c3         1 CMQ       0.176100
     22 O4           1.7550     0.5550    -7.1640 oh         1 CMQ      -0.594800
     23 C24          3.6900     0.6350    -5.7180 c3         1 CMQ      -0.050100
     24 C17          1.3390    -2.2540    -6.6950 c3         1 CMQ       0.019900
     25 C18          0.8530    -3.4500    -5.9170 ca         1 CMQ      -0.117300
     26 C19          1.5950    -4.6160    -5.9100 ca         1 CMQ      -0.079500
     27 C21          1.1550    -5.7120    -5.1930 ca         1 CMQ      -0.131000
     28 C23         -0.0380    -5.6440    -4.4880 ca         1 CMQ       0.126100
     29 O5          -0.4760    -6.7220    -3.7850 oh         1 CMQ      -0.499100
     30 C22         -0.7830    -4.4740    -4.5000 ca         1 CMQ      -0.131000
     31 C20         -0.3360    -3.3790    -5.2160 ca         1 CMQ      -0.079500
     32 H21A         0.5410     0.8840     2.4810 h1         1 CMQ       0.011200
     33 H22A         0.5410    -0.8850     2.4810 h1         1 CMQ       0.011200
     34 H4           2.2410     2.1360     3.6800 ha         1 CMQ       0.106500
     35 H5           3.8450     2.1370     5.5540 ha         1 CMQ       0.103000
     36 H6           4.6460     0.0010     6.4910 ha         1 CMQ       0.101000
     37 H7           3.8410    -2.1340     5.5580 ha         1 CMQ       0.103000
     38 H8           2.2360    -2.1340     3.6870 ha         1 CMQ       0.106500
     39 HN1          2.8870    -0.0750    -1.1700 hn         1 CMQ       0.201500
     40 H9           0.2230    -0.4270    -2.3600 h1         1 CMQ       0.072700
     41 H111         1.8130     2.1060    -2.9020 hc         1 CMQ       0.034200
     42 H112         0.3670     2.0340    -1.8850 hc         1 CMQ       0.034200
     43 H12          0.4620     1.1640    -4.7950 hc         1 CMQ       0.044700
     44 H131        -1.8060     1.5660    -2.8130 hc         1 CMQ       0.005367
     45 H132        -1.2690     0.0270    -3.4990 hc         1 CMQ       0.005367
     46 H133        -2.0270     1.2420    -4.5380 hc         1 CMQ       0.005367
     47 H141        -0.7050     3.2440    -5.2930 hc         1 CMQ       0.005367
     48 H142         0.8080     3.6290    -4.4590 hc         1 CMQ       0.005367
     49 H143        -0.7260     3.6830    -3.5800 hc         1 CMQ       0.005367
     50 HN2          0.4120    -0.7730    -4.8040 hn         1 CMQ       0.195500
     51 H15          3.0190    -1.9820    -5.3820 h1         1 CMQ       0.066700
     52 H16          3.4120    -0.6430    -7.4230 h1         1 CMQ       0.003700
     53 HO4          1.9790     0.8160    -8.0420 ho         1 CMQ       0.392000
     54 H241         4.3300     0.0020    -5.1150 hc         1 CMQ       0.024367
     55 H242         3.0610     1.2340    -5.0700 hc         1 CMQ       0.024367
     56 H243         4.3010     1.2870    -6.3310 hc         1 CMQ       0.024367
     57 H171         1.9160    -2.5890    -7.5480 hc         1 CMQ       0.031200
     58 H172         0.4890    -1.6770    -7.0380 hc         1 CMQ       0.031200
     59 H19          2.5270    -4.6690    -6.4610 ha         1 CMQ       0.105500
     60 H21          1.7360    -6.6260    -5.1880 ha         1 CMQ       0.115500
     61 HO5         -1.0010    -7.2700    -4.3450 ho         1 CMQ       0.403000
     62 H22         -1.7150    -4.4180    -3.9510 ha         1 CMQ       0.115500
     63 H20         -0.9170    -2.4650    -5.2260 ha         1 CMQ       0.105500
@<TRIPOS>BOND
     1     1     2 2   
     2     2     3 1   
     3     2    11 1   
     4     3     4 1   
     5     4     5 1   
     6     4    32 1   
     7     4    33 1   
     8     5     6 ar  
     9     5    10 ar  
    10     6     7 ar  
    11     6    34 1   
    12     7     8 ar  
    13     7    35 1   
    14     8     9 ar  
    15     8    36 1   
    16     9    10 ar  
    17     9    37 1   
    18    10    38 1   
    19    11    12 1   
    20    11    39 1   
    21    12    13 1   
    22    12    17 1   
    23    12    40 1   
    24    13    14 1   
    25    13    41 1   
    26    13    42 1   
    27    14    15 1   
    28    14    16 1   
    29    14    43 1   
    30    15    44 1   
    31    15    45 1   
    32    15    46 1   
    33    16    47 1   
    34    16    48 1   
    35    16    49 1   
    36    17    18 2   
    37    17    19 1   
    38    19    20 1   
    39    19    50 1   
    40    20    21 1   
    41    20    24 1   
    42    20    51 1   
    43    21    22 1   
    44    21    23 1   
    45    21    52 1   
    46    22    53 1   
    47    23    54 1   
    48    23    55 1   
    49    23    56 1   
    50    24    25 1   
    51    24    57 1   
    52    24    58 1   
    53    25    26 ar  
    54    25    31 ar  
    55    26    27 ar  
    56    26    59 1   
    57    27    28 ar  
    58    27    60 1   
    59    28    29 1   
    60    28    30 ar  
    61    29    61 1   
    62    30    31 ar  
    63    30    62 1   
    64    31    63 1   
@<TRIPOS>SUBSTRUCTURE
     1 CMQ         1 TEMP              0 ****  ****    0 ROOT
