@<TRIPOS>MOLECULE
CMS
   18    17     1     0     0
SMALL
bcc


@<TRIPOS>ATOM
      1 C1         -0.2330   -0.0450   -0.1100 c         1 CMS      0.643100
      2 C2         -2.2330    0.3980    1.1860 c3        1 CMS      0.062300
      3 C3         -0.0570    0.2710    2.3520 c3        1 CMS      0.024000
      4 C4          0.2560   -1.0910    2.9450 c         1 CMS      0.601100
      5 N1          1.2610   -0.3500   -0.2050 n4        1 CMS     -0.745400
      6 N3         -0.7860    0.2450    1.1120 n         1 CMS     -0.420800
      7 O1          1.1740   -1.8040    2.2230 oh        1 CMS     -0.681100
      8 O2         -0.1760   -1.5870    3.9760 o         1 CMS     -0.439000
      9 O3         -0.7970   -0.0710   -1.2070 o         1 CMS     -0.472100
     10 H21        -2.6970    0.2810    0.1700 h1        1 CMS      0.090367
     11 H22        -2.6510   -0.3800    1.8810 h1        1 CMS      0.090367
     12 H23        -2.4600    1.4250    1.5810 h1        1 CMS      0.090367
     13 H31         0.9130    0.8370    2.2410 h1        1 CMS      0.115200
     14 H32        -0.6900    0.8210    3.1160 h1        1 CMS      0.115200
     15 HN11        1.4930   -0.4290   -1.2050 hn        1 CMS      0.478800
     16 HN12        1.8250    0.3880    0.2200 hn        1 CMS      0.478800
     17 H13         1.4690   -1.2440    0.2650 hn        1 CMS      0.478800
     18 H311        1.3780   -2.6460    2.6710 ho        1 CMS      0.490000
@<TRIPOS>BOND
     1    1    5 1   
     2    1    6 1   
     3    1    9 2   
     4    2    6 1   
     5    2   10 1   
     6    2   11 1   
     7    2   12 1   
     8    3    4 1   
     9    3    6 1   
    10    3   13 1   
    11    3   14 1   
    12    4    7 1   
    13    4    8 2   
    14    5   15 1   
    15    5   16 1   
    16    5   17 1   
    17    7   18 1   
@<TRIPOS>SUBSTRUCTURE
     1 CMS         1 TEMP              0 ****  ****    0 ROOT
