@<TRIPOS>MOLECULE
CMU
   27    28     1     0     0
SMALL
bcc


@<TRIPOS>ATOM
      1 Cl1          0.0000     0.0000     0.0000 cl         1 CMU       0.058600
      2 C2           1.7240     0.0000     0.0000 cc         1 CMU      -0.227800
      3 C3           2.4730     0.0000     1.1150 cd         1 CMU      -0.097600
      4 C4           1.9530     0.0010     2.5070 c3         1 CMU       0.232000
      5 N5           1.7970    -1.3720     2.9220 nh         1 CMU      -0.496600
      6 C6           2.9600    -2.1810     3.2450 c3         1 CMU       0.169800
      7 C7           2.3520    -3.5790     3.3800 c3         1 CMU      -0.040400
      8 C8           0.9230    -3.3450     3.8730 c3         1 CMU      -0.059700
      9 C9           0.6190    -1.9780     3.3020 c2         1 CMU       0.477200
     10 N10         -0.5970    -1.5500     3.2580 n2         1 CMU      -0.724100
     11 N11          3.8500    -0.0010     1.0310 ns         1 CMU      -0.034100
     12 C12          4.5590    -0.0010    -0.1590 c          1 CMU       0.615500
     13 O13          5.7890    -0.0020    -0.2020 o          1 CMU      -0.663500
     14 N14          3.7670    -0.0020    -1.3040 ns         1 CMU      -0.188500
     15 C15          2.3800    -0.0010    -1.3390 c          1 CMU       0.649700
     16 O16          1.7340    -0.0030    -2.3830 o          1 CMU      -0.614500
     17 H4C1         0.9950     0.5050     2.5410 h1         1 CMU       0.036700
     18 H4C2         2.6560     0.5040     3.1610 h1         1 CMU       0.036700
     19 H6C1         3.6830    -2.1520     2.4400 h1         1 CMU       0.014200
     20 H6C2         3.4010    -1.8620     4.1820 h1         1 CMU       0.014200
     21 H7C1         2.3400    -4.0770     2.4180 hc         1 CMU       0.027700
     22 H7C2         2.9080    -4.1610     4.1050 hc         1 CMU       0.027700
     23 H8C1         0.2490    -4.0900     3.4670 hc         1 CMU       0.041200
     24 H8C2         0.8870    -3.3270     4.9550 hc         1 CMU       0.041200
     25 H10         -0.7950    -0.6400     2.8910 hn         1 CMU       0.317400
     26 HN1          4.3710    -0.0010     1.8860 hn         1 CMU       0.189500
     27 HN2          4.2420    -0.0020    -2.1850 hn         1 CMU       0.197500
@<TRIPOS>BOND
     1     1     2 1   
     2     2     3 2   
     3     2    15 1   
     4     3     4 1   
     5     3    11 1   
     6     4     5 1   
     7     4    17 1   
     8     4    18 1   
     9     5     6 1   
    10     5     9 1   
    11     6     7 1   
    12     6    19 1   
    13     6    20 1   
    14     7     8 1   
    15     7    21 1   
    16     7    22 1   
    17     8     9 1   
    18     8    23 1   
    19     8    24 1   
    20     9    10 2   
    21    10    25 1   
    22    11    12 1   
    23    11    26 1   
    24    12    13 2   
    25    12    14 1   
    26    14    15 1   
    27    14    27 1   
    28    15    16 2   
@<TRIPOS>SUBSTRUCTURE
     1 CMU         1 TEMP              0 ****  ****    0 ROOT
