@<TRIPOS>MOLECULE
CMV
   62    58     1     0     0
SMALL
bcc


@<TRIPOS>ATOM
      1 C1          2.1800   -0.2900   -2.6360 c3        1 CMV     -0.184000
      2 C2          2.2190    1.6940    0.9670 c2        1 CMV      0.371000
      3 C6          3.0420    0.7560   -3.2320 c2        1 CMV     -0.238000
      4 C12         2.2780    0.8260    2.2120 c2        1 CMV     -0.089000
      5 C13         2.6980    4.8590    4.4660 c2        1 CMV     -0.314000
      6 C14         3.0870    5.6160    3.4270 c2        1 CMV     -0.023000
      7 C15         5.3370    2.2050    1.3000 c1        1 CMV      0.211000
      8 C16         3.4080    1.8520   -2.5670 c2        1 CMV     -0.221000
      9 N3          1.8610    1.2030    3.3590 n2        1 CMV     -0.255000
     10 S1          3.4860    0.3750   -4.8410 sh        1 CMV      0.037000
     11 O4          5.5230    3.2830    0.8660 o         1 CMV     -0.244000
     12 N1          2.9910    5.2340    2.0890 n         1 CMV     -0.301000
     13 CAL         3.4900    6.0100    1.0670 c2        1 CMV      0.286000
     14 OAV         4.0680    7.1030    1.2720 o         1 CMV     -0.430000
     15 CAM         3.3170    5.4580   -0.3660 c3        1 CMV     -0.064000
     16 CAW         1.8640    5.5190   -0.7670 c2        1 CMV      0.006000
     17 CBD         1.3960    4.3650   -1.5750 c3        1 CMV     -0.210000
     18 CBG        -0.1040    8.5720   -0.6810 c1        1 CMV     -0.103000
     19 CBH        -0.4030    9.5830   -1.2500 c1        1 CMV     -0.238000
     20 CBF         0.2150    7.3910    0.0110 c2        1 CMV     -0.029000
     21 CBC         1.0660    6.4880   -0.4010 c1        1 CMV     -0.162000
     22 NAN         4.2640    6.0320   -1.3440 n3        1 CMV     -0.114000
     23 NAG         3.9700    7.2220   -1.9700 n         1 CMV     -0.277000
     24 CAE         3.5010    7.1760   -3.2900 c2        1 CMV      0.304000
     25 OAS         3.2810    6.1530   -3.9510 o         1 CMV     -0.276000
     26 CAQ         3.7690    8.4550   -1.1930 c3        1 CMV     -0.121000
     27 CAU         3.5660    9.7170   -1.9370 c1        1 CMV     -0.056000
     28 NAO         3.3650    9.7220   -3.2490 n         1 CMV     -0.200000
     29 CAI         3.3540    8.5240   -4.0280 c2        1 CMV      0.238000
     30 OAT         3.2230    8.5490   -5.2550 o         1 CMV     -0.266000
     31 CBB         3.1610   10.9890   -3.9440 c3        1 CMV     -0.026000
     32 CBE         4.3740   11.4820   -4.7160 c3        1 CMV     -0.232000
     33 H1          1.6960    0.0940   -1.6970 hc        1 CMV      0.094333
     34 H1A         2.7890   -1.1920   -2.3770 hc        1 CMV      0.094333
     35 H1B         1.3790   -0.5990   -3.3510 hc        1 CMV      0.094333
     36 H12         2.7260   -0.1700    1.9950 h4        1 CMV      0.076000
     37 H13         2.2810    3.8490    4.3620 ha        1 CMV      0.125500
     38 H14         2.7880    5.2370    5.4890 ha        1 CMV      0.125500
     39 H15         3.5110    6.6310    3.5710 h4        1 CMV      0.143000
     40 H16         4.1750    1.4560   -5.1620 hs        1 CMV      0.022000
     41 H16A        4.0400    2.6360   -3.0040 ha        1 CMV      0.147000
     42 H16B        3.0770    2.0400   -1.5260 ha        1 CMV      0.147000
     43 HN3         1.9630    0.5210    4.0840 hn        1 CMV      0.101000
     44 HN1         2.6860    4.2960    1.8730 hn        1 CMV      0.290000
     45 HAM         3.6230    4.3510   -0.3450 h1        1 CMV      0.216000
     46 HBD         2.0620    4.2390   -2.4680 hc        1 CMV      0.117667
     47 HBG         0.3450    4.5040   -1.9200 hc        1 CMV      0.117667
     48 HBH         1.4560    3.4260   -0.9510 hc        1 CMV      0.117667
     49 HBF        -0.6630   10.4780   -1.7510 ha        1 CMV      0.215000
     50 HBC        -0.3180    7.2500    0.9740 ha        1 CMV      0.150000
     51 HNAN        5.1350    6.1920   -0.8350 hn        1 CMV      0.178000
     52 HAQ         6.3080    7.5020    0.7620 ha        1 CMV      0.001000
     53 HAQA        6.6990    7.6460    0.2280 ha        1 CMV      0.001000
     54 HAU         4.6730    8.5990   -0.5220 h1        1 CMV      0.158500
     55 HAUA        2.8760    8.3410   -0.4970 h1        1 CMV      0.158500
     56 HBB         5.2430   11.6510   -4.0360 hc        1 CMV      0.085333
     57 HBBA        2.8720   11.7560   -3.1710 h1        1 CMV      0.107000
     58 HBE         2.3020   10.8490   -4.6610 h1        1 CMV      0.107000
     59 HBEA        4.1120   12.4480   -5.2100 hc        1 CMV      0.085333
     60 HBEB        4.6700   10.7460   -5.5020 hc        1 CMV      0.085333
     61 O1          1.3280    1.4650    0.1110 o         1 CMV     -0.571000
     62 O2          3.1150    2.5870    0.8060 o         1 CMV     -0.571000
@<TRIPOS>BOND
     1    1    3 1
     2    1   33 1
     3    1   34 1
     4    1   35 1
     5    2    4 1
     6    2   61 1
     7    2   62 1
     8    3    8 1
     9    3   10 1
    10    4    9 1
    11    4   36 1
    12    5    6 1
    13    5   37 1
    14    5   38 1
    15    6   12 1
    16    6   39 1
    17    7   11 1
    18    8   41 1
    19    8   42 1
    20    9   43 1
    21   10   40 1
    22   12   13 1
    23   12   44 1
    24   13   14 1
    25   13   15 1
    26   15   16 1
    27   15   22 1
    28   15   45 1
    29   16   17 1
    30   16   21 1
    31   17   46 1
    32   17   47 1
    33   17   48 1
    34   18   19 1
    35   18   20 1
    36   19   49 1
    37   20   21 1
    38   20   50 1
    39   22   23 1
    40   22   51 1
    41   23   24 1
    42   23   26 1
    43   24   25 1
    44   24   29 1
    45   26   27 1
    46   26   54 1
    47   26   55 1
    48   27   28 1
    49   28   29 1
    50   28   31 1
    51   29   30 1
    52   31   32 1
    53   31   57 1
    54   31   58 1
    55   32   56 1
    56   32   59 1
    57   32   60 1
    58   52   53 1
@<TRIPOS>SUBSTRUCTURE
     1 CMV         1 TEMP              0 ****  ****    0 ROOT
