@<TRIPOS>MOLECULE
CMW
   43    44     1     0     0
SMALL
bcc


@<TRIPOS>ATOM
      1 O4           0.0000     0.0000     0.0000 o          1 CMW      -0.624000
      2 C6           1.2250     0.0000     0.0000 c          1 CMW       0.663100
      3 N2           1.9560     0.0000     1.0970 ns         1 CMW       0.030900
      4 C5           3.3490    -0.0780     1.1720 ca         1 CMW      -0.063400
      5 C4           3.9280     0.1200     2.4100 ca         1 CMW      -0.269300
      6 C3           5.3060    -0.0100     2.5990 ca         1 CMW       0.437700
      7 N1           6.0910    -0.3680     1.5880 nb         1 CMW      -0.605000
      8 C2           5.5490    -0.5880     0.3670 ca         1 CMW       0.437700
      9 C1           4.1770    -0.4590     0.1200 ca         1 CMW      -0.269300
     10 O1           1.9160     0.0840    -1.2430 os         1 CMW      -0.448900
     11 C7           1.1320     0.0870    -2.4470 c3         1 CMW       0.242400
     12 C8           2.0510     0.4120    -3.6100 c3         1 CMW      -0.077400
     13 C9           3.1660    -0.6250    -3.7050 c3         1 CMW       0.212800
     14 N3           4.1220    -0.1310    -4.6800 n7         1 CMW      -0.574100
     15 S            5.4750     0.4350    -4.2570 sy         1 CMW       1.025200
     16 O3           6.3000     0.4470    -5.4780 o          1 CMW      -0.584300
     17 O2           6.0460    -0.3350    -3.1310 o          1 CMW      -0.584300
     18 C10          5.2100     1.9360    -3.7240 ca         1 CMW      -0.257500
     19 C16          5.3280     2.2330    -2.3690 ca         1 CMW       0.036500
     20 C15          5.0530     3.5310    -1.9710 ca         1 CMW      -0.142500
     21 C13          4.6870     4.4720    -2.9290 ca         1 CMW      -0.011300
     22 C14          4.3970     5.8810    -2.4860 c3         1 CMW       0.047200
     23 C12          4.5900     4.1490    -4.1810 ca         1 CMW      -0.142500
     24 C11          4.8210     2.9470    -4.6010 ca         1 CMW       0.036500
     25 H2           1.4630     0.0620     1.9660 hn         1 CMW       0.183500
     26 H4           3.3040     0.4130     3.2460 ha         1 CMW       0.133500
     27 H1           3.7710    -0.6410    -0.8680 ha         1 CMW       0.133500
     28 H3           5.7330     0.1590     3.5800 h4         1 CMW      -0.003400
     29 HA           6.2000    -0.8810    -0.4480 h4         1 CMW      -0.003400
     30 H71C         0.3550     0.8380    -2.3750 h1         1 CMW       0.012700
     31 H72C         0.6860    -0.8880    -2.5960 h1         1 CMW       0.012700
     32 H81C         1.4800     0.4090    -4.5310 hc         1 CMW       0.029200
     33 H82C         2.4850     1.3930    -3.4610 hc         1 CMW       0.029200
     34 H91C         2.7610    -1.5750    -4.0320 h1         1 CMW       0.037700
     35 H92C         3.6470    -0.7400    -2.7410 h1         1 CMW       0.037700
     36 HB           3.8900    -0.1650    -5.6530 hn         1 CMW       0.356800
     37 H16          5.6160     1.4740    -1.6510 ha         1 CMW       0.125500
     38 H11          4.7260     2.7260    -5.6570 ha         1 CMW       0.125500
     39 H15          5.1310     3.8130    -0.9280 ha         1 CMW       0.114500
     40 H141         4.8820     6.5790    -3.1580 hc         1 CMW       0.014367
     41 H142         4.7730     6.0280    -1.4810 hc         1 CMW       0.014367
     42 H143         3.3270     6.0510    -2.5000 hc         1 CMW       0.014367
     43 H12          4.2960     4.9070    -4.8970 ha         1 CMW       0.114500
@<TRIPOS>BOND
     1     1     2 2   
     2     2     3 1   
     3     2    10 1   
     4     3     4 1   
     5     3    25 1   
     6     4     5 ar  
     7     4     9 ar  
     8     5     6 ar  
     9     5    26 1   
    10     6     7 ar  
    11     6    28 1   
    12     7     8 ar  
    13     8     9 ar  
    14     8    29 1   
    15     9    27 1   
    16    10    11 1   
    17    11    12 1   
    18    11    30 1   
    19    11    31 1   
    20    12    13 1   
    21    12    32 1   
    22    12    33 1   
    23    13    14 1   
    24    13    34 1   
    25    13    35 1   
    26    14    15 1   
    27    14    36 1   
    28    15    16 2   
    29    15    17 2   
    30    15    18 1   
    31    18    19 ar  
    32    18    24 ar  
    33    19    20 ar  
    34    19    37 1   
    35    20    21 ar  
    36    20    39 1   
    37    21    22 1   
    38    21    23 ar  
    39    22    40 1   
    40    22    41 1   
    41    22    42 1   
    42    23    24 ar  
    43    23    43 1   
    44    24    38 1   
@<TRIPOS>SUBSTRUCTURE
     1 CMW         1 TEMP              0 ****  ****    0 ROOT
