@<TRIPOS>MOLECULE
molecule
   43    44     1     0     0
SMALL
bcc


@<TRIPOS>ATOM
      1 O4           0.0000     0.0000     0.0000 o          1 CMW      -0.573000
      2 C6           1.2250     0.0000     0.0000 c          1 CMW       0.755100
      3 N2           1.9560     0.0000     1.0970 ns         1 CMW      -0.432100
      4 C5           3.3490    -0.0780     1.1720 ca         1 CMW       0.096600
      5 C4           3.9280     0.1200     2.4100 ca         1 CMW      -0.294300
      6 C3           5.3060    -0.0100     2.5990 ca         1 CMW       0.436200
      7 N1           6.0910    -0.3680     1.5880 nb         1 CMW      -0.690000
      8 C2           5.5490    -0.5880     0.3670 ca         1 CMW       0.436200
      9 C1           4.1770    -0.4590     0.1200 ca         1 CMW      -0.294300
     10 O1           1.9160     0.0840    -1.2430 os         1 CMW      -0.463900
     11 C7           1.1320     0.0870    -2.4470 c3         1 CMW       0.157400
     12 C8           2.0510     0.4120    -3.6100 c3         1 CMW      -0.115400
     13 C9           3.1660    -0.6250    -3.7050 c3         1 CMW       0.228800
     14 N3           4.1220    -0.1310    -4.6800 n7         1 CMW      -0.935100
     15 S            5.4750     0.4350    -4.2570 sy         1 CMW       1.448200
     16 O3           6.3000     0.4470    -5.4780 o          1 CMW      -0.640800
     17 O2           6.0460    -0.3350    -3.1310 o          1 CMW      -0.640800
     18 C10          5.2100     1.9360    -3.7240 ca         1 CMW      -0.437500
     19 C16          5.3280     2.2330    -2.3690 ca         1 CMW       0.005000
     20 C15          5.0530     3.5310    -1.9710 ca         1 CMW      -0.157500
     21 C13          4.6870     4.4720    -2.9290 ca         1 CMW      -0.001300
     22 C14          4.3970     5.8810    -2.4860 c3         1 CMW      -0.064800
     23 C12          4.5900     4.1490    -4.1810 ca         1 CMW      -0.157500
     24 C11          4.8210     2.9470    -4.6010 ca         1 CMW       0.005000
     25 H2           1.4630     0.0620     1.9660 hn         1 CMW       0.355500
     26 H4           3.3040     0.4130     3.2460 ha         1 CMW       0.150500
     27 H1           3.7710    -0.6410    -0.8680 ha         1 CMW       0.150500
     28 H3           5.7330     0.1590     3.5800 h4         1 CMW       0.043100
     29 HA           6.2000    -0.8810    -0.4480 h4         1 CMW       0.043100
     30 H71C         0.3550     0.8380    -2.3750 h1         1 CMW       0.052200
     31 H72C         0.6860    -0.8880    -2.5960 h1         1 CMW       0.052200
     32 H81C         1.4800     0.4090    -4.5310 hc         1 CMW       0.061700
     33 H82C         2.4850     1.3930    -3.4610 hc         1 CMW       0.061700
     34 H91C         2.7610    -1.5750    -4.0320 h1         1 CMW       0.073200
     35 H92C         3.6470    -0.7400    -2.7410 h1         1 CMW       0.073200
     36 HB           3.8900    -0.1650    -5.6530 hn         1 CMW       0.468800
     37 H16          5.6160     1.4740    -1.6510 ha         1 CMW       0.155000
     38 H11          4.7260     2.7260    -5.6570 ha         1 CMW       0.155000
     39 H15          5.1310     3.8130    -0.9280 ha         1 CMW       0.139000
     40 H141         4.8820     6.5790    -3.1580 hc         1 CMW       0.052367
     41 H142         4.7730     6.0280    -1.4810 hc         1 CMW       0.052367
     42 H143         3.3270     6.0510    -2.5000 hc         1 CMW       0.052367
     43 H12          4.2960     4.9070    -4.8970 ha         1 CMW       0.139000
@<TRIPOS>BOND
     1     1     2 2
     2     2     3 1
     3     2    10 1
     4     3     4 1
     5     4     5 ar
     6     4     9 ar
     7     5     6 ar
     8     6     7 ar
     9     7     8 ar
    10     8     9 ar
    11    10    11 1
    12    11    12 1
    13    12    13 1
    14    13    14 1
    15    14    15 1
    16    15    16 2
    17    15    17 2
    18    15    18 1
    19    18    19 ar
    20    18    24 ar
    21    19    20 ar
    22    20    21 ar
    23    21    22 1
    24    21    23 ar
    25    23    24 ar
    26     3    25 1
    27     5    26 1
    28     9    27 1
    29     6    28 1
    30     8    29 1
    31    11    30 1
    32    11    31 1
    33    12    32 1
    34    12    33 1
    35    13    34 1
    36    13    35 1
    37    14    36 1
    38    19    37 1
    39    24    38 1
    40    20    39 1
    41    22    40 1
    42    22    41 1
    43    22    42 1
    44    23    43 1
@<TRIPOS>SUBSTRUCTURE
     1 CMW         1 TEMP              0 ****  ****    0 ROOT
