@<TRIPOS>MOLECULE
CMY
   27    26     1     0     0
SMALL
bcc


@<TRIPOS>ATOM
      1 O1Y          0.0000     0.0000     0.0000 o          1 CMY      -0.903300
      2 C1Y          1.3610     0.0000     0.0000 c          1 CMY       0.981600
      3 N1Y          1.8520     0.0000     1.2900 ns         1 CMY      -0.316900
      4 C2Y          3.2520    -0.0000     1.6130 c3         1 CMY       0.073000
      5 C3Y          3.8240     1.4090     1.7450 c3         1 CMY      -0.051400
      6 C4Y          3.1420     2.2850     2.8030 c3         1 CMY      -0.023400
      7 C5Y          3.7810     3.6690     2.9490 c3         1 CMY      -0.010400
      8 C6Y          3.0560     4.5020     4.0120 c3         1 CMY      -0.027400
      9 C7Y          3.6580     5.8930     4.1760 c3         1 CMY      -0.080200
     10 N2Y          2.9950     6.6680     5.1880 nz         1 CMY       0.112400
     11 O1           2.0170     0.0010    -1.0350 o          1 CMY      -0.903300
     12 H1           1.1940    -0.0010     2.0440 hn         1 CMY       0.161500
     13 H2Y1         3.7900    -0.5240     0.8320 h1         1 CMY       0.004200
     14 H2Y2         3.3940    -0.5250     2.5490 h1         1 CMY       0.004200
     15 H3Y1         3.7380     1.9030     0.7860 hc         1 CMY       0.011700
     16 H3Y2         4.8750     1.3280     1.9960 hc         1 CMY       0.011700
     17 H4Y1         3.1920     1.7780     3.7580 hc         1 CMY       0.019700
     18 H4Y2         2.1010     2.4110     2.5300 hc         1 CMY       0.019700
     19 H5Y1         4.8190     3.5520     3.2370 hc         1 CMY       0.020700
     20 H5Y2         3.7310     4.1860     1.9980 hc         1 CMY       0.020700
     21 H6Y1         2.0150     4.6020     3.7270 hc         1 CMY       0.031700
     22 H6Y2         3.1110     3.9830     4.9610 hc         1 CMY       0.031700
     23 H7Y1         4.7040     5.7920     4.4420 hx         1 CMY       0.083700
     24 H7Y2         3.5870     6.4180     3.2310 hx         1 CMY       0.083700
     25 H11          3.4230     7.5700     5.2510 hn         1 CMY       0.215800
     26 H12          2.0290     6.7730     4.9480 hn         1 CMY       0.215800
     27 H2Y3         3.0710     6.2000     6.0690 hn         1 CMY       0.215800
@<TRIPOS>BOND
     1     1     2 1   
     2     2     3 1   
     3     2    11 1   
     4     3     4 1   
     5     3    12 1   
     6     4     5 1   
     7     4    13 1   
     8     4    14 1   
     9     5     6 1   
    10     5    15 1   
    11     5    16 1   
    12     6     7 1   
    13     6    17 1   
    14     6    18 1   
    15     7     8 1   
    16     7    19 1   
    17     7    20 1   
    18     8     9 1   
    19     8    21 1   
    20     8    22 1   
    21     9    10 1   
    22     9    23 1   
    23     9    24 1   
    24    10    25 1   
    25    10    26 1   
    26    10    27 1   
@<TRIPOS>SUBSTRUCTURE
     1 CMY         1 TEMP              0 ****  ****    0 ROOT
