@<TRIPOS>MOLECULE
molecule
   42    43     1     0     0
SMALL
bcc


@<TRIPOS>ATOM
      1 C1           0.0000     0.0000     0.0000 c3         1 CMZ      -0.047800
      2 C2           1.4920     0.0000     0.0000 ca         1 CMZ      -0.073300
      3 C3           2.1880     0.0000     1.2090 ca         1 CMZ      -0.141000
      4 C4           3.5820     0.0000     1.2100 ca         1 CMZ      -0.114000
      5 C5           4.2810     0.0010     0.0030 ca         1 CMZ      -0.095300
      6 C6           5.7740    -0.0020     0.0230 c3         1 CMZ      -0.041800
      7 C7           3.5810    -0.0000    -1.2000 ca         1 CMZ       0.120100
      8 O8           4.2510    -0.0020    -2.3940 os         1 CMZ      -0.334900
      9 C9           4.0100    -1.1060    -3.2610 c3         1 CMZ       0.149400
     10 C10          4.8270    -0.9190    -4.5360 c3         1 CMZ       0.152100
     11 O11          4.3670     0.2610    -5.1950 oh         1 CMZ      -0.589800
     12 C12          6.3310    -0.8130    -4.2810 c3         1 CMZ       0.148800
     13 N13          6.8460    -2.0180    -3.6330 n3         1 CMZ      -0.721600
     14 C14          6.6330    -3.1980    -4.4830 c3         1 CMZ       0.120300
     15 C15          7.1880    -4.4400    -3.7920 c3         1 CMZ       0.132400
     16 O16          8.5790    -4.2720    -3.5100 os         1 CMZ      -0.413600
     17 C17          8.7920    -3.1460    -2.6590 c3         1 CMZ       0.132400
     18 C18          8.2740    -1.8730    -3.3210 c3         1 CMZ       0.120300
     19 C19          2.1900    -0.0000    -1.2070 ca         1 CMZ      -0.168000
     20 H11         -0.3610     0.0880     1.0180 hc         1 CMZ       0.042700
     21 H12         -0.3610    -0.9250    -0.4320 hc         1 CMZ       0.042700
     22 H13         -0.3610     0.8370    -0.5850 hc         1 CMZ       0.042700
     23 H3           1.6450    -0.0010     2.1460 ha         1 CMZ       0.130000
     24 H4           4.1230     0.0000     2.1480 ha         1 CMZ       0.133000
     25 H61          6.1470     0.6790    -0.7330 hc         1 CMZ       0.045367
     26 H62          6.1220     0.3160     0.9990 hc         1 CMZ       0.045367
     27 H63          6.1360    -1.0020    -0.1810 hc         1 CMZ       0.045367
     28 H91          2.9560    -1.1500    -3.5080 h1         1 CMZ       0.039200
     29 H92          4.3070    -2.0250    -2.7710 h1         1 CMZ       0.039200
     30 H10          4.6480    -1.7680    -5.1850 h1         1 CMZ       0.030700
     31 HO11         4.1160     0.0490    -6.0790 ho         1 CMZ       0.398000
     32 H121         6.5240     0.0420    -3.6440 h1         1 CMZ       0.051700
     33 H122         6.8420    -0.6730    -5.2260 h1         1 CMZ       0.051700
     34 H141         5.5720    -3.3290    -4.6570 h1         1 CMZ       0.043200
     35 H142         7.1430    -3.0560    -5.4280 h1         1 CMZ       0.043200
     36 H151         7.0570    -5.2980    -4.4410 h1         1 CMZ       0.053450
     37 H152         6.6530    -4.6020    -2.8640 h1         1 CMZ       0.053450
     38 H171         8.2660    -3.3010    -1.7250 h1         1 CMZ       0.053450
     39 H172         9.8530    -3.0420    -2.4660 h1         1 CMZ       0.053450
     40 H181         8.8250    -1.6960    -4.2370 h1         1 CMZ       0.043200
     41 H182         8.4100    -1.0370    -2.6460 h1         1 CMZ       0.043200
     42 H19          1.6510    -0.0020    -2.1470 ha         1 CMZ       0.138000
@<TRIPOS>BOND
     1    11    10 1
     2     1     2 1
     3     9    10 1
     4     9     8 1
     5    10    12 1
     6    13    12 1
     7    13    14 1
     8    13    18 1
     9    15    14 1
    10    15    16 1
    11    19     2 ar
    12    19     7 ar
    13    17    18 1
    14    17    16 1
    15     2     3 ar
    16     8     7 1
    17     7     5 ar
    18     3     4 ar
    19     5     4 ar
    20     5     6 1
    21     1    20 1
    22     1    21 1
    23     1    22 1
    24     3    23 1
    25     4    24 1
    26     6    25 1
    27     6    26 1
    28     6    27 1
    29     9    28 1
    30     9    29 1
    31    10    30 1
    32    11    31 1
    33    12    32 1
    34    12    33 1
    35    14    34 1
    36    14    35 1
    37    15    36 1
    38    15    37 1
    39    17    38 1
    40    17    39 1
    41    18    40 1
    42    18    41 1
    43    19    42 1
@<TRIPOS>SUBSTRUCTURE
     1 CMZ         1 TEMP              0 ****  ****    0 ROOT
