@<TRIPOS>MOLECULE
CN
    3     2     1     0     0
SMALL
bcc


@<TRIPOS>ATOM
      1 C1           0.0000     0.0000     0.0000 c1         1 CN        0.214300
      2 N1           1.0580     0.0000     0.0000 n1         1 CN       -0.376800
      3 H1          -1.0830     0.0000     0.0190 ha         1 CN        0.163500
@<TRIPOS>BOND
     1     1     2 3   
     2     1     3 1   
@<TRIPOS>SUBSTRUCTURE
     1 CN          1 TEMP              0 ****  ****    0 ROOT
