@<TRIPOS>MOLECULE
CN2
   56    58     1     0     0
SMALL
bcc


@<TRIPOS>ATOM
      1 O4          0.0770    0.9440    0.3870 o         1 CN2     -0.400100
      2 C12         0.8150    0.0050    0.1320 c         1 CN2      0.547100
      3 C13         0.8060   -1.3570    0.7510 c3        1 CN2     -0.115300
      4 S1          2.4170   -1.9290    1.1430 sh        1 CN2     -0.289900
      5 N1          1.8720    0.2490   -0.9200 n4        1 CN2     -0.682800
      6 C11         1.3070    0.1320   -2.3160 c3        1 CN2      0.154700
      7 C14         1.2640   -1.2880   -2.8500 cc        1 CN2     -0.030200
      8 C15         2.3230   -2.1030   -2.6740 cd        1 CN2     -0.249200
      9 C10         2.0800    1.0020   -3.3210 c3        1 CN2     -0.089400
     10 C9          1.5770    0.7110   -4.7280 c3        1 CN2     -0.035100
     11 C8          0.0870    0.6670   -4.7930 ca        1 CN2     -0.036300
     12 C7         -0.5790    1.7180   -5.4240 ca        1 CN2     -0.220000
     13 C5         -1.9760    1.7360   -5.4720 ca        1 CN2      0.157100
     14 C3         -2.7230    0.7030   -4.8580 ca        1 CN2      0.013100
     15 C1         -2.0450   -0.3520   -4.2200 ca        1 CN2      0.164100
     16 O1         -2.6660   -1.4010   -3.5810 os        1 CN2     -0.343900
     17 C2         -4.0280   -1.2450   -3.1800 c3        1 CN2      0.122700
     18 O2         -4.1010    0.7880   -4.7790 os        1 CN2     -0.332900
     19 C4         -4.7750    0.6260   -6.0310 c3        1 CN2      0.110700
     20 O3         -2.7180    2.7160   -6.0860 os        1 CN2     -0.307900
     21 C6         -1.9910    3.7490   -6.7500 c3        1 CN2      0.106700
     22 C22        -0.6250   -0.3990   -4.2130 ca        1 CN2     -0.135800
     23 C21         0.0830   -1.5610   -3.6480 cc        1 CN2     -0.066200
     24 C20        -0.3870   -2.8110   -3.9080 cd        1 CN2     -0.010000
     25 C19         0.0920   -4.0720   -3.4380 cd        1 CN2     -0.233000
     26 C17         1.3670   -4.3770   -3.1000 cc        1 CN2      0.065900
     27 C16         2.5190   -3.4470   -3.2340 c         1 CN2      0.577500
     28 O5          3.5930   -3.7880   -3.7320 o         1 CN2     -0.459100
     29 O6          1.7950   -5.5920   -2.6330 os        1 CN2     -0.296900
     30 C18         0.8360   -6.6480   -2.5860 c3        1 CN2      0.103700
     31 H131        0.1130   -1.3340    1.6340 h1        1 CN2      0.153200
     32 H132        0.3740   -2.0890    0.0100 h1        1 CN2      0.153200
     33 HS1         2.5380   -1.4840    2.3900 hs        1 CN2      0.240800
     34 HN1         2.2390    1.2020   -0.8100 hn        1 CN2      0.466800
     35 H11         0.2470    0.5400   -2.2350 hx        1 CN2      0.136700
     36 H15         3.2230   -1.7750   -2.1200 ha        1 CN2      0.139000
     37 H101        1.9260    2.0850   -3.0760 hc        1 CN2      0.068200
     38 H102        3.1790    0.7790   -3.2760 hc        1 CN2      0.068200
     39 H91         1.9950   -0.2710   -5.0840 hc        1 CN2      0.081200
     40 H92         1.9770    1.5070   -5.4130 hc        1 CN2      0.081200
     41 H7          0.0020    2.5290   -5.8870 ha        1 CN2      0.151000
     42 H21        -4.1890   -0.2640   -2.6730 h1        1 CN2      0.057367
     43 H22        -4.1810   -2.0990   -2.4720 h1        1 CN2      0.057367
     44 H23        -4.6970   -1.3410   -4.0700 h1        1 CN2      0.057367
     45 H41        -4.5750   -0.3900   -6.4470 h1        1 CN2      0.052700
     46 H42        -5.8540    0.7440   -5.7570 h1        1 CN2      0.052700
     47 H43        -4.4600    1.4180   -6.7520 h1        1 CN2      0.052700
     48 H61        -2.8030    4.3910   -7.1800 h1        1 CN2      0.055700
     49 H62        -1.3500    3.3240   -7.5590 h1        1 CN2      0.055700
     50 H63        -1.3770    4.3280   -6.0180 h1        1 CN2      0.055700
     51 H20        -1.3050   -2.8920   -4.5310 ha        1 CN2      0.167000
     52 H19        -0.6790   -4.8660   -3.4100 ha        1 CN2      0.159000
     53 H181        0.4320   -6.8560   -3.6060 h1        1 CN2      0.060033
     54 H182        0.0130   -6.3960   -1.8740 h1        1 CN2      0.060033
     55 H183        1.4370   -7.5160   -2.2110 h1        1 CN2      0.060033
     56 H12         2.6430   -0.4250   -0.7740 hn        1 CN2      0.466800
@<TRIPOS>BOND
     1    1    2 2   
     2    2    3 1   
     3    2    5 1   
     4    3    4 1   
     5    3   31 1   
     6    3   32 1   
     7    4   33 1   
     8    5    6 1   
     9    5   34 1   
    10    5   56 1   
    11    6    7 1   
    12    6    9 1   
    13    6   35 1   
    14    7    8 2   
    15    7   23 1   
    16    8   27 1   
    17    8   36 1   
    18    9   10 1   
    19    9   37 1   
    20    9   38 1   
    21   10   11 1   
    22   10   39 1   
    23   10   40 1   
    24   11   12 ar  
    25   11   22 ar  
    26   12   13 ar  
    27   12   41 1   
    28   13   14 ar  
    29   13   20 1   
    30   14   15 ar  
    31   14   18 1   
    32   15   16 1   
    33   15   22 ar  
    34   16   17 1   
    35   17   42 1   
    36   17   43 1   
    37   17   44 1   
    38   18   19 1   
    39   19   45 1   
    40   19   46 1   
    41   19   47 1   
    42   20   21 1   
    43   21   48 1   
    44   21   49 1   
    45   21   50 1   
    46   22   23 1   
    47   23   24 2   
    48   24   25 1   
    49   24   51 1   
    50   25   26 2   
    51   25   52 1   
    52   26   27 1   
    53   26   29 1   
    54   27   28 2   
    55   29   30 1   
    56   30   53 1   
    57   30   54 1   
    58   30   55 1   
@<TRIPOS>SUBSTRUCTURE
     1 CN2         1 TEMP              0 ****  ****    0 ROOT
