@<TRIPOS>MOLECULE
CN5
   91    90     1     0     0
SMALL
bcc


@<TRIPOS>ATOM
      1 P          -1.9700   -0.2460   -2.8880 p5        1 CN5      1.442800
      2 O11        -0.6390    0.5830   -3.4120 os        1 CN5     -0.573200
      3 O12        -2.6010    0.5820   -1.8370 o         1 CN5     -0.838000
      4 O13        -1.2580   -1.5370   -2.1680 os        1 CN5     -0.579200
      5 O14        -2.6410   -0.7510   -4.1030 o         1 CN5     -0.838000
      6 C1         -0.1030    1.5650   -2.5870 c3        1 CN5      0.191400
      7 C2          1.3390    1.2120   -2.2310 c3        1 CN5     -0.129400
      8 C3          2.0060    2.3920   -1.5570 c3        1 CN5      0.150400
      9 O31         3.3570    1.9710   -1.2710 os        1 CN5     -0.422900
     10 O32         3.7070    3.9360   -0.2520 o         1 CN5     -0.577000
     11 C31         4.1320    2.8120   -0.5430 c         1 CN5      0.632100
     12 C32         5.4520    2.2000   -0.1810 c3        1 CN5     -0.134400
     13 C33         6.5220    3.2550   -0.0120 c3        1 CN5     -0.076400
     14 C34         7.8120    2.6390    0.4870 c3        1 CN5     -0.080400
     15 C35         8.8940    3.6870    0.6390 c3        1 CN5     -0.077400
     16 C36        10.1830    3.0740    1.1420 c3        1 CN5     -0.080400
     17 C37        11.2670    4.1190    1.2930 c3        1 CN5     -0.078400
     18 C38        12.5570    3.5060    1.7960 c3        1 CN5     -0.079400
     19 C39        13.6410    4.5510    1.9460 c3        1 CN5     -0.078400
     20 C3A        14.9300    3.9370    2.4490 c3        1 CN5     -0.079400
     21 C3B        16.0160    4.9820    2.5980 c3        1 CN5     -0.078400
     22 C3C        17.3050    4.3680    3.1010 c3        1 CN5     -0.079400
     23 C3D        18.3900    5.4120    3.2500 c3        1 CN5     -0.079400
     24 C3E        19.6800    4.7990    3.7530 c3        1 CN5     -0.080400
     25 C3F        20.7640    5.8350    3.9020 c3        1 CN5     -0.092100
     26 P'          1.9530   -5.4430    0.3670 p5        1 CN5      1.433800
     27 O1'         2.1890   -5.5340   -1.2660 os        1 CN5     -0.580200
     28 O2'         0.7030   -6.1720    0.6720 o         1 CN5     -0.832500
     29 O4'         3.2590   -5.6810    1.0070 o         1 CN5     -0.832500
     30 C1'         1.1490   -5.9990   -2.0670 c3        1 CN5      0.183400
     31 C2'         0.7990   -4.9560   -3.1230 c3        1 CN5     -0.121400
     32 C3'        -0.2460   -5.5050   -4.0740 c3        1 CN5      0.147400
     33 O41        -0.5570   -4.4390   -4.9860 os        1 CN5     -0.432900
     34 O42        -2.4860   -5.4580   -5.4760 o         1 CN5     -0.602000
     35 C41        -1.7960   -4.4320   -5.5560 c         1 CN5      0.650100
     36 C42        -2.1220   -3.1480   -6.2270 c3        1 CN5     -0.180100
     37 CA          0.3350   -3.4050    0.2070 c3        1 CN5      0.161400
     38 CB          0.4300   -2.0770   -0.5610 c3        1 CN5      0.102100
     39 OA          1.1800   -1.1290    0.1950 oh        1 CN5     -0.636800
     40 CC         -0.9560   -1.4590   -0.8070 c3        1 CN5      0.188400
     41 H1         -0.1090    2.5420   -3.1530 h1        1 CN5      0.025200
     42 H1A        -0.7220    1.6830   -1.6530 h1        1 CN5      0.025200
     43 H2          1.3550    0.3190   -1.5480 hc        1 CN5      0.076200
     44 H2A         1.8980    0.9310   -3.1600 hc        1 CN5      0.076200
     45 H3          2.0550    3.2930   -2.2210 h1        1 CN5      0.040700
     46 H3A         1.5020    2.6660   -0.5950 h1        1 CN5      0.040700
     47 H32         5.3030    1.6310    0.7770 hc        1 CN5      0.082200
     48 H32A        5.7460    1.4570   -0.9690 hc        1 CN5      0.082200
     49 H33         6.7010    3.7690   -0.9930 hc        1 CN5      0.050200
     50 H33A        6.1640    4.0380    0.7090 hc        1 CN5      0.050200
     51 H34         8.1520    1.8460   -0.2300 hc        1 CN5      0.043700
     52 H34A        7.6320    2.1370    1.4740 hc        1 CN5      0.043700
     53 H35         8.5500    4.4810    1.3530 hc        1 CN5      0.037700
     54 H35A        9.0750    4.1870   -0.3490 hc        1 CN5      0.037700
     55 H36        10.5250    2.2780    0.4290 hc        1 CN5      0.041700
     56 H36A       10.0020    2.5750    2.1310 hc        1 CN5      0.041700
     57 H37        11.4490    4.6180    0.3050 hc        1 CN5      0.037200
     58 H37A       10.9260    4.9150    2.0060 hc        1 CN5      0.037200
     59 H38        12.3750    3.0080    2.7850 hc        1 CN5      0.040700
     60 H38A       12.8970    2.7100    1.0830 hc        1 CN5      0.040700
     61 H39        13.8230    5.0490    0.9570 hc        1 CN5      0.037700
     62 H39A       13.3000    5.3470    2.6590 hc        1 CN5      0.037700
     63 H3AA       15.2710    3.1410    1.7360 hc        1 CN5      0.039700
     64 H3AB       14.7490    3.4390    3.4380 hc        1 CN5      0.039700
     65 H3B        16.1970    5.4800    1.6090 hc        1 CN5      0.037700
     66 H3BA       15.6750    5.7790    3.3110 hc        1 CN5      0.037700
     67 H3C        17.1230    3.8700    4.0900 hc        1 CN5      0.039700
     68 H3CA       17.6440    3.5710    2.3880 hc        1 CN5      0.039700
     69 H3D        18.0500    6.2090    3.9630 hc        1 CN5      0.038700
     70 H3DA       18.5720    5.9100    2.2610 hc        1 CN5      0.038700
     71 H3E        19.4960    4.3010    4.7410 hc        1 CN5      0.038700
     72 H3EA       20.0170    4.0010    3.0390 hc        1 CN5      0.038700
     73 H3F        21.7050    5.3620    4.2740 hc        1 CN5      0.030033
     74 H3FA       20.9780    6.3250    2.9220 hc        1 CN5      0.030033
     75 H3FB       20.4560    6.6260    4.6290 hc        1 CN5      0.030033
     76 H1'         1.5000   -6.9370   -2.5890 h1        1 CN5      0.026700
     77 H1'A        0.2450   -6.2480   -1.4430 h1        1 CN5      0.026700
     78 H2'         1.7210   -4.6670   -3.6890 hc        1 CN5      0.067200
     79 H2'A        0.4070   -4.0240   -2.6340 hc        1 CN5      0.067200
     80 H3'        -1.1700   -5.8270   -3.5270 h1        1 CN5      0.037200
     81 H3'A        0.1430   -6.3650   -4.6780 h1        1 CN5      0.037200
     82 H42        -2.4800   -2.4080   -5.4490 hc        1 CN5      0.092367
     83 H42A       -1.2140   -2.7170   -6.7120 hc        1 CN5      0.092367
     84 H42B       -2.9230   -3.3130   -6.9840 hc        1 CN5      0.092367
     85 HA         -0.2330   -3.2310    1.1640 h1        1 CN5      0.031200
     86 HAA        -0.2000   -4.1780   -0.4090 h1        1 CN5      0.031200
     87 HB          0.9560   -2.2440   -1.5430 h1        1 CN5      0.057700
     88 HOA         1.9400   -1.6110    0.5490 ho        1 CN5      0.419000
     89 HC         -1.7270   -2.0410   -0.2270 h1        1 CN5      0.033200
     90 HCA        -0.9720   -0.3860   -0.4660 h1        1 CN5      0.033200
     91 O3'         1.6290   -3.8330    0.5130 os        1 CN5     -0.588200
@<TRIPOS>BOND
     1    1    2 1   
     2    1    3 1   
     3    1    4 1   
     4    1    5 1   
     5    2    6 1   
     6    4   40 1   
     7    6    7 1   
     8    6   41 1   
     9    6   42 1   
    10    7    8 1   
    11    7   43 1   
    12    7   44 1   
    13    8    9 1   
    14    8   45 1   
    15    8   46 1   
    16    9   11 1   
    17   10   11 2   
    18   11   12 1   
    19   12   13 1   
    20   12   47 1   
    21   12   48 1   
    22   13   14 1   
    23   13   49 1   
    24   13   50 1   
    25   14   15 1   
    26   14   51 1   
    27   14   52 1   
    28   15   16 1   
    29   15   53 1   
    30   15   54 1   
    31   16   17 1   
    32   16   55 1   
    33   16   56 1   
    34   17   18 1   
    35   17   57 1   
    36   17   58 1   
    37   18   19 1   
    38   18   59 1   
    39   18   60 1   
    40   19   20 1   
    41   19   61 1   
    42   19   62 1   
    43   20   21 1   
    44   20   63 1   
    45   20   64 1   
    46   21   22 1   
    47   21   65 1   
    48   21   66 1   
    49   22   23 1   
    50   22   67 1   
    51   22   68 1   
    52   23   24 1   
    53   23   69 1   
    54   23   70 1   
    55   24   25 1   
    56   24   71 1   
    57   24   72 1   
    58   25   73 1   
    59   25   74 1   
    60   25   75 1   
    61   26   27 1   
    62   26   28 1   
    63   26   29 1   
    64   26   91 1   
    65   27   30 1   
    66   30   31 1   
    67   30   76 1   
    68   30   77 1   
    69   31   32 1   
    70   31   78 1   
    71   31   79 1   
    72   32   33 1   
    73   32   80 1   
    74   32   81 1   
    75   33   35 1   
    76   34   35 2   
    77   35   36 1   
    78   36   82 1   
    79   36   83 1   
    80   36   84 1   
    81   37   38 1   
    82   37   85 1   
    83   37   86 1   
    84   37   91 1   
    85   38   39 1   
    86   38   40 1   
    87   38   87 1   
    88   39   88 1   
    89   40   89 1   
    90   40   90 1   
@<TRIPOS>SUBSTRUCTURE
     1 CN5         1 TEMP              0 ****  ****    0 ROOT
