@<TRIPOS>MOLECULE
molecule
   91    90     1     0     0
SMALL
bcc


@<TRIPOS>ATOM
      1 P            0.0000     0.0000     0.0000 p5         1 CN5       1.371800
      2 O11          1.6100     0.0000     0.0000 os         1 CN5      -0.601200
      3 O12         -0.5360     0.0000     1.5180 o          1 CN5      -0.831500
      4 O13         -0.5370    -1.3140    -0.7600 os         1 CN5      -0.609200
      5 O14         -0.4940     1.2090    -0.6970 o          1 CN5      -0.831500
      6 C1           2.3890     1.0860     0.5060 c3         1 CN5       0.237400
      7 C2           3.8760     0.7610     0.3540 c3         1 CN5      -0.096400
      8 C3           4.7100     1.9240     0.8960 c3         1 CN5       0.143400
      9 O31          6.1210     1.6160     0.7520 os         1 CN5      -0.429900
     10 O32          6.5910     3.5730     1.6650 o          1 CN5      -0.561000
     11 C31          6.9940     2.5410     1.1830 c          1 CN5       0.630100
     12 C32          8.4750     2.2910     1.0660 c3         1 CN5      -0.130400
     13 C33          9.2400     3.4920     1.6270 c3         1 CN5      -0.071400
     14 C34         10.7450     3.2380     1.5070 c3         1 CN5      -0.084400
     15 C35         11.5100     4.4390     2.0680 c3         1 CN5      -0.080400
     16 C36         13.0150     4.1850     1.9490 c3         1 CN5      -0.082400
     17 C37         13.7800     5.3860     2.5090 c3         1 CN5      -0.082400
     18 C38         15.2840     5.1320     2.3900 c3         1 CN5      -0.082400
     19 C39         16.0490     6.3330     2.9500 c3         1 CN5      -0.082400
     20 C3A         17.5530     6.0790     2.8310 c3         1 CN5      -0.082400
     21 C3B         18.3180     7.2800     3.3910 c3         1 CN5      -0.082400
     22 C3C         19.8230     7.0260     3.2720 c3         1 CN5      -0.082400
     23 C3D         20.5880     8.2280     3.8330 c3         1 CN5      -0.081400
     24 C3E         22.0920     7.9740     3.7140 c3         1 CN5      -0.084400
     25 C3F         22.8580     9.1740     4.2740 c3         1 CN5      -0.092100
     26 P'          -5.0910    -4.7840    -3.5040 p5         1 CN5       1.371800
     27 O1'         -4.8460    -6.0670    -4.4440 os         1 CN5      -0.601200
     28 O2'         -5.7230    -3.7040    -4.2960 o          1 CN5      -0.831000
     29 O4'         -6.0580    -5.1890    -2.2830 o          1 CN5      -0.831000
     30 C1'         -5.8900    -6.6940    -5.1930 c3         1 CN5       0.237400
     31 C2'         -5.3180    -7.8780    -5.9750 c3         1 CN5      -0.097400
     32 C3'         -6.4350    -8.5500    -6.7750 c3         1 CN5       0.143400
     33 O41         -5.8920    -9.6730    -7.5180 os         1 CN5      -0.429900
     34 O42         -7.9140   -10.0580    -8.3190 o          1 CN5      -0.562000
     35 C41         -6.7490   -10.3730    -8.2770 c          1 CN5       0.629100
     36 C42         -6.2570   -11.5540    -9.0750 c3         1 CN5      -0.143100
     37 CA          -3.5500    -3.0820    -2.1370 c3         1 CN5       0.214400
     38 CB          -2.0830    -2.8860    -1.7510 c3         1 CN5       0.133100
     39 OA          -1.6680    -3.9530    -0.8960 oh         1 CN5      -0.593800
     40 CC          -1.9220    -1.5530    -1.0170 c3         1 CN5       0.215400
     41 H1           2.1570     1.2380     1.5530 h1         1 CN5       0.029200
     42 H1A          2.1570     1.9860    -0.0500 h1         1 CN5       0.029200
     43 H2           4.1080    -0.1390     0.9100 hc         1 CN5       0.055200
     44 H2A          4.1070     0.6090    -0.6930 hc         1 CN5       0.055200
     45 H3           4.4790     2.8250     0.3400 h1         1 CN5       0.049200
     46 H3A          4.4790     2.0770     1.9440 h1         1 CN5       0.049200
     47 H32          8.7370     1.4020     1.6270 hc         1 CN5       0.067700
     48 H32A         8.7360     2.1500     0.0240 hc         1 CN5       0.067700
     49 H33          8.9790     3.6320     2.6680 hc         1 CN5       0.057700
     50 H33A         8.9780     4.3810     1.0650 hc         1 CN5       0.057700
     51 H34         11.0070     2.3490     2.0680 hc         1 CN5       0.038700
     52 H34A        11.0060     3.0970     0.4650 hc         1 CN5       0.038700
     53 H35         11.2480     5.3280     1.5070 hc         1 CN5       0.043700
     54 H35A        11.2490     4.5800     3.1100 hc         1 CN5       0.043700
     55 H36         13.2760     4.0450     0.9070 hc         1 CN5       0.039700
     56 H36A        13.2770     3.2960     2.5100 hc         1 CN5       0.039700
     57 H37         13.5180     6.2750     1.9480 hc         1 CN5       0.041700
     58 H37A        13.5190     5.5270     3.5510 hc         1 CN5       0.041700
     59 H38         15.5450     4.2430     2.9510 hc         1 CN5       0.040700
     60 H38A        15.5450     4.9910     1.3480 hc         1 CN5       0.040700
     61 H39         15.7870     6.4740     3.9920 hc         1 CN5       0.040700
     62 H39A        15.7870     7.2220     2.3890 hc         1 CN5       0.040700
     63 H3AA        17.8150     5.1900     3.3920 hc         1 CN5       0.040700
     64 H3AB        17.8150     5.9390     1.7890 hc         1 CN5       0.040700
     65 H3B         18.0570     8.1690     2.8300 hc         1 CN5       0.040700
     66 H3BA        18.0570     7.4210     4.4330 hc         1 CN5       0.040700
     67 H3C         20.0840     6.8860     2.2300 hc         1 CN5       0.040700
     68 H3CA        20.0850     6.1380     3.8330 hc         1 CN5       0.040700
     69 H3D         20.3270     8.3680     4.8740 hc         1 CN5       0.040700
     70 H3DA        20.3260     9.1160     3.2710 hc         1 CN5       0.040700
     71 H3E         22.3540     7.8340     2.6720 hc         1 CN5       0.039700
     72 H3EA        22.3540     7.0850     4.2750 hc         1 CN5       0.039700
     73 H3F         22.5940     9.3170     5.3150 hc         1 CN5       0.031033
     74 H3FA        22.6000    10.0630     3.7110 hc         1 CN5       0.031033
     75 H3FB        23.9230     8.9920     4.1940 hc         1 CN5       0.031033
     76 H1'         -6.6590    -7.0460    -4.5160 h1         1 CN5       0.029700
     77 H1'A        -6.3180    -5.9780    -5.8850 h1         1 CN5       0.029700
     78 H2'         -4.8890    -8.5930    -5.2830 hc         1 CN5       0.055200
     79 H2'A        -4.5500    -7.5260    -6.6530 hc         1 CN5       0.055200
     80 H3'         -7.2030    -8.9020    -6.0970 h1         1 CN5       0.049200
     81 H3'A        -6.8650    -7.8340    -7.4660 h1         1 CN5       0.049200
     82 H42         -7.0820   -11.9840    -9.6290 hc         1 CN5       0.061033
     83 H42A        -5.4890   -11.2270    -9.7660 hc         1 CN5       0.061033
     84 H42B        -5.8460   -12.2980    -8.4030 hc         1 CN5       0.061033
     85 HA          -4.1500    -3.1750    -1.2400 h1         1 CN5       0.038700
     86 HAA         -3.8900    -2.2290    -2.7110 h1         1 CN5       0.038700
     87 HB          -1.4710    -2.8810    -2.6460 h1         1 CN5       0.033700
     88 HOA         -0.9660    -4.4290    -1.3060 ho         1 CN5       0.387000
     89 HC          -2.4630    -1.5910    -0.0790 h1         1 CN5       0.038700
     90 HCA         -2.3190    -0.7530    -1.6300 h1         1 CN5       0.038700
     91 O3'         -3.6800    -4.2680    -2.9230 os         1 CN5      -0.609200
@<TRIPOS>BOND
     1     5     1 1
     2     3     1 1
     3     1     2 1
     4     1     4 1
     5     2     6 1
     6     4    40 1
     7     7     6 1
     8     6    41 1
     9     6    42 1
    10     7     8 1
    11     7    43 1
    12     7    44 1
    13     9     8 1
    14     8    45 1
    15     8    46 1
    16     9    11 1
    17    11    10 2
    18    12    11 1
    19    13    12 1
    20    12    47 1
    21    12    48 1
    22    13    14 1
    23    13    49 1
    24    13    50 1
    25    15    14 1
    26    14    51 1
    27    14    52 1
    28    15    16 1
    29    15    53 1
    30    15    54 1
    31    17    16 1
    32    16    55 1
    33    16    56 1
    34    17    18 1
    35    17    57 1
    36    17    58 1
    37    19    18 1
    38    18    59 1
    39    18    60 1
    40    19    20 1
    41    19    61 1
    42    19    62 1
    43    21    20 1
    44    20    63 1
    45    20    64 1
    46    22    21 1
    47    21    65 1
    48    21    66 1
    49    23    22 1
    50    22    67 1
    51    22    68 1
    52    24    23 1
    53    23    69 1
    54    23    70 1
    55    25    24 1
    56    24    71 1
    57    24    72 1
    58    25    73 1
    59    25    74 1
    60    25    75 1
    61    91    26 1
    62    27    26 1
    63    26    28 1
    64    26    29 1
    65    30    27 1
    66    37    91 1
    67    31    30 1
    68    30    76 1
    69    30    77 1
    70    31    32 1
    71    31    78 1
    72    31    79 1
    73    33    32 1
    74    32    80 1
    75    32    81 1
    76    35    33 1
    77    34    35 2
    78    36    35 1
    79    36    82 1
    80    36    83 1
    81    36    84 1
    82    38    37 1
    83    37    85 1
    84    37    86 1
    85    39    38 1
    86    40    38 1
    87    38    87 1
    88    39    88 1
    89    40    89 1
    90    40    90 1
@<TRIPOS>SUBSTRUCTURE
     1 CN5         1 TEMP              0 ****  ****    0 ROOT
