@<TRIPOS>MOLECULE
CN6
  106   105     1     0     0
SMALL
bcc


@<TRIPOS>ATOM
      1 P          -0.9800   -0.6440   -0.0390 p5        1 CN6      1.426800
      2 O11         0.6490   -0.3730    0.1430 os        1 CN6     -0.565200
      3 O12        -1.5640   -0.7750    1.3080 o         1 CN6     -0.827500
      4 O13        -0.8350   -2.1450   -0.7090 os        1 CN6     -0.592200
      5 O14        -1.4230    0.2930   -1.0890 o         1 CN6     -0.827500
      6 C1          1.2690   -0.0840   -1.0720 c3        1 CN6      0.182400
      7 C2          2.7840   -0.0220   -0.8320 c3        1 CN6      0.134100
      8 C3          3.4010   -1.3840   -0.5230 c3        1 CN6      0.127400
      9 O31         2.9120   -2.3260   -1.4820 os        1 CN6     -0.447900
     10 O32         3.1940   -3.9770   -0.0080 o         1 CN6     -0.574000
     11 C31         2.6120   -3.5870   -1.0240 c         1 CN6      0.653100
     12 C32         1.5980   -4.2740   -1.8760 c3        1 CN6     -0.147400
     13 C33         1.6300   -5.7700   -1.7190 c3        1 CN6     -0.084100
     14 O21         3.3300    0.5070   -2.0620 os        1 CN6     -0.419900
     15 O22         5.1650    1.2020   -0.9620 o         1 CN6     -0.573000
     16 C21         4.5470    1.1020   -2.0270 c         1 CN6      0.633100
     17 C22         4.9870    1.5670   -3.3850 c3        1 CN6     -0.133400
     18 C23         5.7960    2.8420   -3.2920 c3        1 CN6     -0.079400
     19 C24         6.3550    3.2320   -4.6360 c3        1 CN6     -0.091100
     20 P'         -5.0340   -6.6100   -1.5480 p5        1 CN6      1.431800
     21 O1'        -3.8060   -7.4270   -2.3230 os        1 CN6     -0.568200
     22 O2'        -6.1780   -6.7170   -2.4800 o         1 CN6     -0.826000
     23 O4'        -5.0210   -6.9810   -0.1250 o         1 CN6     -0.826000
     24 C1'        -3.7150   -7.2340   -3.6940 c3        1 CN6      0.200400
     25 C2'        -4.0330   -8.5520   -4.4390 c3        1 CN6      0.095100
     26 C3'        -5.4590   -8.5490   -4.9860 c3        1 CN6      0.093400
     27 O41        -5.9580   -9.8950   -5.0360 os        1 CN6     -0.422900
     28 O42        -5.7230   -9.9650   -7.2740 o         1 CN6     -0.577000
     29 C41        -5.9870  -10.5550   -6.2210 c         1 CN6      0.639100
     30 C42        -6.3620  -11.9980   -6.0480 c3        1 CN6     -0.135400
     31 C43        -7.0270  -12.5490   -7.2900 c3        1 CN6     -0.076400
     32 C44        -7.2680  -14.0370   -7.1590 c3        1 CN6     -0.079400
     33 C45        -7.9470  -14.5920   -8.3920 c3        1 CN6     -0.078400
     34 C46        -8.1840  -16.0820   -8.2670 c3        1 CN6     -0.079400
     35 C47        -8.8630  -16.6370   -9.5000 c3        1 CN6     -0.078400
     36 C48        -9.0990  -18.1270   -9.3750 c3        1 CN6     -0.079400
     37 C49        -9.7780  -18.6820  -10.6080 c3        1 CN6     -0.079400
     38 C4A       -10.0140  -20.1730  -10.4850 c3        1 CN6     -0.080400
     39 C4B       -10.6890  -20.7300  -11.7110 c3        1 CN6     -0.091100
     40 O51        -3.1070   -8.5810   -5.5500 os        1 CN6     -0.435900
     41 O52        -2.8030  -10.8000   -5.3110 o         1 CN6     -0.571000
     42 C51        -2.5130   -9.7500   -5.8950 c         1 CN6      0.644100
     43 C52        -1.5500   -9.5760   -7.0340 c3        1 CN6     -0.132400
     44 C53        -0.3460  -10.4790   -6.8720 c3        1 CN6     -0.080400
     45 C54         0.5540  -10.4050   -8.0780 c3        1 CN6     -0.090100
     46 CA         -3.6340   -4.5710   -0.6990 c3        1 CN6      0.149400
     47 CB         -2.3660   -3.9140   -1.2670 c3        1 CN6      0.103100
     48 OA         -1.4870   -4.8930   -1.8130 oh        1 CN6     -0.627800
     49 CC         -1.5860   -3.1850   -0.1590 c3        1 CN6      0.181400
     50 H1          0.8980    0.9040   -1.4570 h1        1 CN6      0.052200
     51 H1A         1.0250   -0.8860   -1.8210 h1        1 CN6      0.052200
     52 H2          3.0260    0.6770    0.0150 h1        1 CN6      0.075700
     53 H3          3.1050   -1.6890    0.5160 h1        1 CN6      0.062200
     54 H3A         4.5170   -1.3490   -0.6200 h1        1 CN6      0.062200
     55 H32         0.5830   -3.8710   -1.5590 hc        1 CN6      0.111700
     56 H33         2.4820   -6.2180   -2.2840 hc        1 CN6      0.039367
     57 H33A        0.6690   -6.1960   -2.1030 hc        1 CN6      0.039367
     58 H22         4.0870    1.7160   -4.0380 hc        1 CN6      0.074200
     59 H22A        5.6030    0.7430   -3.8360 hc        1 CN6      0.074200
     60 H23         6.6290    2.6980   -2.5530 hc        1 CN6      0.053200
     61 H23A        5.1460    3.6660   -2.8970 hc        1 CN6      0.053200
     62 H24         5.5330    3.3850   -5.3760 hc        1 CN6      0.029033
     63 H24A        7.0350    2.4360   -5.0270 hc        1 CN6      0.029033
     64 H24B        6.9360    4.1820   -4.5510 hc        1 CN6      0.029033
     65 H1'        -2.6530   -6.9430   -3.9420 h1        1 CN6      0.041700
     66 H1'A       -4.4150   -6.4220   -4.0320 h1        1 CN6      0.041700
     67 H2'        -3.8650   -9.4340   -3.7650 h1        1 CN6      0.101700
     68 H3'        -5.5070   -8.0630   -5.9930 h1        1 CN6      0.114200
     69 H3'A       -6.1520   -8.0370   -4.2510 h1        1 CN6      0.114200
     70 H42        -5.4120  -12.5560   -5.8260 hc        1 CN6      0.080200
     71 H42A       -7.0350  -12.1040   -5.1570 hc        1 CN6      0.080200
     72 H43        -6.3800  -12.3400   -8.1830 hc        1 CN6      0.052200
     73 H43A       -8.0010  -12.0200   -7.4600 hc        1 CN6      0.052200
     74 H44        -6.2900  -14.5640   -6.9990 hc        1 CN6      0.039700
     75 H44A       -7.9030  -14.2380   -6.2560 hc        1 CN6      0.039700
     76 H45        -7.3140  -14.3860   -9.2950 hc        1 CN6      0.039700
     77 H45A       -8.9270  -14.0670   -8.5500 hc        1 CN6      0.039700
     78 H46        -8.8170  -16.2870   -7.3640 hc        1 CN6      0.038700
     79 H46A       -7.2040  -16.6060   -8.1090 hc        1 CN6      0.038700
     80 H47        -9.8430  -16.1130   -9.6570 hc        1 CN6      0.038700
     81 H47A       -8.2300  -16.4300  -10.4030 hc        1 CN6      0.038700
     82 H48        -8.1190  -18.6500   -9.2170 hc        1 CN6      0.038700
     83 H48A       -9.7320  -18.3330   -8.4720 hc        1 CN6      0.038700
     84 H49       -10.7580  -18.1590  -10.7660 hc        1 CN6      0.038700
     85 H49A       -9.1450  -18.4760  -11.5110 hc        1 CN6      0.038700
     86 H4A       -10.6460  -20.3770   -9.5800 hc        1 CN6      0.037700
     87 H4AA       -9.0330  -20.6940  -10.3250 hc        1 CN6      0.037700
     88 H4B       -10.0630  -20.5580  -12.6190 hc        1 CN6      0.029700
     89 H4BA      -11.6800  -20.2400  -11.8720 hc        1 CN6      0.029700
     90 H4BB      -10.8540  -21.8290  -11.5990 hc        1 CN6      0.029700
     91 H52        -2.1040   -9.8240   -7.9790 hc        1 CN6      0.074200
     92 H52A       -1.2310   -8.5020   -7.0950 hc        1 CN6      0.074200
     93 H53        -0.6940  -11.5340   -6.7130 hc        1 CN6      0.055200
     94 H53A        0.2230  -10.1780   -5.9540 hc        1 CN6      0.055200
     95 H54         0.0120  -10.7340   -8.9980 hc        1 CN6      0.028700
     96 H54A        1.4430  -11.0670   -7.9360 hc        1 CN6      0.028700
     97 H54B        0.9150   -9.3600   -8.2380 hc        1 CN6      0.028700
     98 HA         -4.2480   -3.7720   -0.1950 h1        1 CN6      0.043200
     99 HAA        -3.3700   -5.3720    0.0450 h1        1 CN6      0.043200
    100 HB         -2.6490   -3.1930   -2.0830 h1        1 CN6      0.053700
    101 HOA        -2.0250   -5.4660   -2.3730 ho        1 CN6      0.407000
    102 HC         -2.2980   -2.7850    0.6160 h1        1 CN6      0.043700
    103 HCA        -0.8840   -3.9240    0.3240 h1        1 CN6      0.043700
    104 H57         1.7460   -3.9770   -2.9460 hc        1 CN6      0.111700
    105 H58         1.7350   -6.0490   -0.6420 hc        1 CN6      0.039367
    106 O3'        -4.3750   -5.1190   -1.7510 os        1 CN6     -0.595200
@<TRIPOS>BOND
     1    1    2 1   
     2    1    3 1   
     3    1    4 1   
     4    1    5 1   
     5    2    6 1   
     6    4   49 1   
     7    6    7 1   
     8    6   50 1   
     9    6   51 1   
    10    7    8 1   
    11    7   14 1   
    12    7   52 1   
    13    8    9 1   
    14    8   53 1   
    15    8   54 1   
    16    9   11 1   
    17   10   11 2   
    18   11   12 1   
    19   12   13 1   
    20   12   55 1   
    21   12  104 1   
    22   13   56 1   
    23   13   57 1   
    24   13  105 1   
    25   14   16 1   
    26   15   16 2   
    27   16   17 1   
    28   17   18 1   
    29   17   58 1   
    30   17   59 1   
    31   18   19 1   
    32   18   60 1   
    33   18   61 1   
    34   19   62 1   
    35   19   63 1   
    36   19   64 1   
    37   20   21 1   
    38   20   22 1   
    39   20   23 1   
    40   20  106 1   
    41   21   24 1   
    42   24   25 1   
    43   24   65 1   
    44   24   66 1   
    45   25   26 1   
    46   25   40 1   
    47   25   67 1   
    48   26   27 1   
    49   26   68 1   
    50   26   69 1   
    51   27   29 1   
    52   28   29 2   
    53   29   30 1   
    54   30   31 1   
    55   30   70 1   
    56   30   71 1   
    57   31   32 1   
    58   31   72 1   
    59   31   73 1   
    60   32   33 1   
    61   32   74 1   
    62   32   75 1   
    63   33   34 1   
    64   33   76 1   
    65   33   77 1   
    66   34   35 1   
    67   34   78 1   
    68   34   79 1   
    69   35   36 1   
    70   35   80 1   
    71   35   81 1   
    72   36   37 1   
    73   36   82 1   
    74   36   83 1   
    75   37   38 1   
    76   37   84 1   
    77   37   85 1   
    78   38   39 1   
    79   38   86 1   
    80   38   87 1   
    81   39   88 1   
    82   39   89 1   
    83   39   90 1   
    84   40   42 1   
    85   41   42 2   
    86   42   43 1   
    87   43   44 1   
    88   43   91 1   
    89   43   92 1   
    90   44   45 1   
    91   44   93 1   
    92   44   94 1   
    93   45   95 1   
    94   45   96 1   
    95   45   97 1   
    96   46   47 1   
    97   46   98 1   
    98   46   99 1   
    99   46  106 1   
   100   47   48 1   
   101   47   49 1   
   102   47  100 1   
   103   48  101 1   
   104   49  102 1   
   105   49  103 1   
@<TRIPOS>SUBSTRUCTURE
     1 CN6         1 TEMP              0 ****  ****    0 ROOT
