@<TRIPOS>MOLECULE
molecule
  106   105     1     0     0
SMALL
bcc


@<TRIPOS>ATOM
      1 P            0.0000     0.0000     0.0000 p5         1 CN6       1.370800
      2 O11          1.6110     0.0000     0.0000 os         1 CN6      -0.578200
      3 O12         -0.4930     0.0000     1.3950 o          1 CN6      -0.833500
      4 O13         -0.5360    -1.3150    -0.7580 os         1 CN6      -0.605200
      5 O14         -0.5370     1.3140    -0.7590 o          1 CN6      -0.833500
      6 C1           2.3880     0.9820     0.6870 c3         1 CN6       0.234400
      7 C2           3.8760     0.6890     0.4810 c3         1 CN6       0.138100
      8 C3           4.1790    -0.7450     0.9200 c3         1 CN6       0.140400
      9 O31          3.3050    -1.6630     0.2110 os         1 CN6      -0.355900
     10 O32          4.2680    -3.3350     1.2880 o          1 CN6      -0.602000
     11 C31          3.4430    -2.9690     0.4840 c          1 CN6       0.634100
     12 C32          2.5710    -3.9810    -0.2140 c3         1 CN6      -0.130400
     13 C33          2.9300    -5.3860     0.2740 c3         1 CN6      -0.080100
     14 O21          4.2110     0.8470    -0.9230 os         1 CN6      -0.379900
     15 O22          6.2510     1.4450    -0.3180 o          1 CN6      -0.589000
     16 C21          5.4620     1.2390    -1.2110 c          1 CN6       0.629100
     17 C22          5.8820     1.4240    -2.6460 c3         1 CN6      -0.128400
     18 C23          7.3450     1.8720    -2.6960 c3         1 CN6      -0.074400
     19 C24          7.7710     2.0600    -4.1530 c3         1 CN6      -0.094100
     20 P'          -5.1530    -5.0200    -3.0560 p5         1 CN6       1.369800
     21 O1'         -4.9430    -6.3830    -3.8870 os         1 CN6      -0.594200
     22 O2'         -5.9440    -3.9530    -3.9670 o          1 CN6      -0.827500
     23 O4'         -5.9360    -5.3030    -1.8330 o          1 CN6      -0.827500
     24 C1'         -6.0270    -7.2140    -4.3050 c3         1 CN6       0.237400
     25 C2'         -5.4790    -8.4220    -5.0670 c3         1 CN6       0.138100
     26 C3'         -6.6270    -9.3740    -5.4060 c3         1 CN6       0.122400
     27 O41         -6.0920   -10.5750    -6.0240 os         1 CN6      -0.410900
     28 O42         -8.1560   -11.3490    -6.1900 o          1 CN6      -0.566000
     29 C41         -6.9750   -11.5200    -6.3850 c          1 CN6       0.631100
     30 C42         -6.4960   -12.7930    -7.0320 c3         1 CN6      -0.127400
     31 C43         -7.6940   -13.6920    -7.3410 c3         1 CN6      -0.072400
     32 C44         -7.2060   -14.9850    -7.9980 c3         1 CN6      -0.084400
     33 C45         -8.4040   -15.8840    -8.3070 c3         1 CN6      -0.080400
     34 C46         -7.9170   -17.1760    -8.9630 c3         1 CN6      -0.082400
     35 C47         -9.1160   -18.0760    -9.2720 c3         1 CN6      -0.082400
     36 C48         -8.6280   -19.3680    -9.9300 c3         1 CN6      -0.082400
     37 C49         -9.8270   -20.2680   -10.2380 c3         1 CN6      -0.081400
     38 C4A         -9.3380   -21.5610   -10.8950 c3         1 CN6      -0.084400
     39 C4B        -10.5380   -22.4590   -11.2040 c3         1 CN6      -0.092100
     40 O51         -4.8450    -7.9730    -6.2940 os         1 CN6      -0.398900
     41 O52         -3.4720    -9.6990    -6.1590 o          1 CN6      -0.561000
     42 C51         -3.8250    -8.7110    -6.7570 c          1 CN6       0.637100
     43 C52         -3.1170    -8.3070    -8.0260 c3         1 CN6      -0.127400
     44 C53         -2.0020    -9.3090    -8.3290 c3         1 CN6      -0.073400
     45 C54         -1.2850    -8.8980    -9.6170 c3         1 CN6      -0.095100
     46 CA          -3.5680    -3.2630    -1.8130 c3         1 CN6       0.198400
     47 CB          -2.0810    -2.9610    -1.6230 c3         1 CN6       0.132100
     48 OA          -1.4660    -4.0320    -0.9030 oh         1 CN6      -0.605800
     49 CC          -1.9220    -1.6590    -0.8360 c3         1 CN6       0.229400
     50 H1           2.1560     1.9650     0.2950 h1         1 CN6       0.041700
     51 H1A          2.1570     0.9510     1.7440 h1         1 CN6       0.041700
     52 H2           4.4650     1.3790     1.0730 h1         1 CN6       0.065700
     53 H3           5.2110    -0.9810     0.6920 h1         1 CN6       0.045700
     54 H3A          4.0130    -0.8390     1.9860 h1         1 CN6       0.045700
     55 H32          2.7290    -3.9180    -1.2840 hc         1 CN6       0.089700
     56 H33          2.3230    -6.1160    -0.2490 hc         1 CN6       0.035367
     57 H33A         3.9770    -5.5800     0.0770 hc         1 CN6       0.035367
     58 H22          5.2570     2.1780    -3.1100 hc         1 CN6       0.074200
     59 H22A         5.7730     0.4870    -3.1780 hc         1 CN6       0.074200
     60 H23          7.9690     1.1190    -2.2310 hc         1 CN6       0.052200
     61 H23A         7.4540     2.8100    -2.1640 hc         1 CN6       0.052200
     62 H24          7.2690     2.9250    -4.5680 hc         1 CN6       0.030033
     63 H24A         8.8430     2.2090    -4.1990 hc         1 CN6       0.030033
     64 H24B         7.5040     1.1790    -4.7240 hc         1 CN6       0.030033
     65 H1'         -6.5760    -7.5550    -3.4360 h1         1 CN6       0.045200
     66 H1'A        -6.6870    -6.6480    -4.9510 h1         1 CN6       0.045200
     67 H2'         -4.7510    -8.9370    -4.4520 h1         1 CN6       0.088700
     68 H3'         -7.1550    -9.6400    -4.4990 h1         1 CN6       0.060200
     69 H3'A        -7.3090    -8.8880    -6.0930 h1         1 CN6       0.060200
     70 H42         -5.8220   -13.3090    -6.3580 hc         1 CN6       0.070700
     71 H42A        -5.9750   -12.5570    -7.9520 hc         1 CN6       0.070700
     72 H43         -8.2140   -13.9280    -6.4210 hc         1 CN6       0.056700
     73 H43A        -8.3670   -13.1760    -8.0150 hc         1 CN6       0.056700
     74 H44         -6.5330   -15.5010    -7.3240 hc         1 CN6       0.039700
     75 H44A        -6.6860   -14.7490    -8.9180 hc         1 CN6       0.039700
     76 H45         -8.9250   -16.1200    -7.3870 hc         1 CN6       0.043200
     77 H45A        -9.0780   -15.3690    -8.9810 hc         1 CN6       0.043200
     78 H46         -7.3960   -16.9400    -9.8830 hc         1 CN6       0.040200
     79 H46A        -7.2440   -17.6920    -8.2890 hc         1 CN6       0.040200
     80 H47         -9.6360   -18.3130    -8.3520 hc         1 CN6       0.041200
     81 H47A        -9.7900   -17.5600    -9.9460 hc         1 CN6       0.041200
     82 H48         -7.9530   -19.8830    -9.2570 hc         1 CN6       0.040200
     83 H48A        -8.1080   -19.1310   -10.8500 hc         1 CN6       0.040200
     84 H49        -10.3470   -20.5040    -9.3180 hc         1 CN6       0.040700
     85 H49A       -10.5010   -19.7530   -10.9120 hc         1 CN6       0.040700
     86 H4A         -8.6650   -22.0760   -10.2210 hc         1 CN6       0.039200
     87 H4AA        -8.8180   -21.3240   -11.8150 hc         1 CN6       0.039200
     88 H4B        -11.0700   -22.6790   -10.2860 hc         1 CN6       0.030367
     89 H4BA       -10.1910   -23.3840   -11.6500 hc         1 CN6       0.030367
     90 H4BB       -11.2020   -21.9520   -11.8930 hc         1 CN6       0.030367
     91 H52         -3.8240    -8.2950    -8.8460 hc         1 CN6       0.070200
     92 H52A        -2.6900    -7.3190    -7.9020 hc         1 CN6       0.070200
     93 H53         -1.2940    -9.3200    -7.5090 hc         1 CN6       0.053700
     94 H53A        -2.4280   -10.2970    -8.4520 hc         1 CN6       0.053700
     95 H54         -1.9790    -8.9430   -10.4470 hc         1 CN6       0.029367
     96 H54A        -0.4580    -9.5740    -9.8010 hc         1 CN6       0.029367
     97 H54B        -0.9090    -7.8870    -9.5150 hc         1 CN6       0.029367
     98 HA          -4.0240    -3.4540    -0.8480 h1         1 CN6       0.039700
     99 HAA         -4.0520    -2.4140    -2.2800 h1         1 CN6       0.039700
    100 HB          -1.6060    -2.8580    -2.5920 h1         1 CN6       0.038700
    101 HOA         -1.1770    -4.6930    -1.5090 ho         1 CN6       0.391000
    102 HC          -2.4630    -0.8650    -1.3370 h1         1 CN6       0.040200
    103 HCA         -2.3170    -1.7900     0.1640 h1         1 CN6       0.040200
    104 H57          1.5310    -3.7760     0.0100 hc         1 CN6       0.089700
    105 H58          2.7430    -5.4580     1.3380 hc         1 CN6       0.035367
    106 O3'         -3.7180    -4.4140    -2.6460 os         1 CN6      -0.614200
@<TRIPOS>BOND
     1     1     3 1
     2     1     5 1
     3     2     1 1
     4     4     1 1
     5     6     2 1
     6     6    50 1
     7     6    51 1
     8     7     6 1
     9     7    14 1
    10     7     8 1
    11     7    52 1
    12     8    53 1
    13     8    54 1
    14     9     8 1
    15     9    11 1
    16    11    10 2
    17    12    11 1
    18    12    55 1
    19    13    12 1
    20    13    56 1
    21    13    57 1
    22    15    16 2
    23    16    14 1
    24    17    16 1
    25    17    58 1
    26    17    59 1
    27    18    17 1
    28    18    60 1
    29    18    61 1
    30    19    18 1
    31    19    62 1
    32    19    63 1
    33    19    64 1
    34    20    22 1
    35    21    20 1
    36   106    20 1
    37    23    20 1
    38    24    21 1
    39    24    65 1
    40    24    66 1
    41    25    24 1
    42    25    26 1
    43    25    67 1
    44    26    68 1
    45    26    69 1
    46    27    26 1
    47    27    29 1
    48    29    28 2
    49    29    30 1
    50    30    31 1
    51    30    70 1
    52    30    71 1
    53    31    72 1
    54    31    73 1
    55    32    31 1
    56    32    33 1
    57    32    74 1
    58    32    75 1
    59    33    76 1
    60    33    77 1
    61    34    33 1
    62    34    78 1
    63    34    79 1
    64    35    34 1
    65    35    36 1
    66    35    80 1
    67    35    81 1
    68    36    82 1
    69    36    83 1
    70    37    36 1
    71    37    38 1
    72    37    84 1
    73    37    85 1
    74    38    86 1
    75    38    87 1
    76    39    38 1
    77    39    88 1
    78    39    89 1
    79    39    90 1
    80    40    25 1
    81    41    42 2
    82    42    40 1
    83    43    42 1
    84    43    91 1
    85    43    92 1
    86    44    43 1
    87    44    45 1
    88    44    93 1
    89    44    94 1
    90    45    95 1
    91    45    96 1
    92    45    97 1
    93    46   106 1
    94    46    47 1
    95    46    98 1
    96    46    99 1
    97    47    49 1
    98    47   100 1
    99    48    47 1
   100    48   101 1
   101    49     4 1
   102    49   102 1
   103    49   103 1
   104    12   104 1
   105    13   105 1
@<TRIPOS>SUBSTRUCTURE
     1 CN6         1 TEMP              0 ****  ****    0 ROOT
