@<TRIPOS>MOLECULE
molecule
   76    81     1     0     0
SMALL
bcc


@<TRIPOS>ATOM
      1 C4           0.0000     0.0000     0.0000 ca         1 CN7      -0.139000
      2 C5           3.4000     1.1740     5.3540 ca         1 CN7      -0.179000
      3 C6           4.2220    -4.3050    13.7130 ca         1 CN7      -0.076000
      4 C7           1.2270    -3.5360    15.7180 ca         1 CN7      -0.138000
      5 C8           0.3720    -2.7640    13.1710 ca         1 CN7      -0.077000
      6 C10          3.3980    -4.1880    14.7910 ca         1 CN7      -0.180000
      7 C13          1.3830     0.0000     0.0000 ca         1 CN7      -0.134000
      8 C15          2.1020    -3.6720    14.6270 ca         1 CN7       0.000000
      9 C17          2.9310    -1.1580     5.6560 ca         1 CN7      -0.093800
     10 C20          2.0750     0.0000     1.1930 ca         1 CN7      -0.072300
     11 C21          2.8730    -2.4680     6.1880 cc         1 CN7      -0.168400
     12 C22          2.2210    -1.1780     4.4410 ca         1 CN7      -0.049200
     13 C24          2.1660    -3.2370     5.3180 cd         1 CN7      -0.046300
     14 C26          1.9250    -4.8470     0.0210 c3         1 CN7       0.120300
     15 C28          1.0480    -5.3580    -1.1260 c3         1 CN7       0.137900
     16 C1          -0.0220    -3.0320    15.5200 ca         1 CN7      -0.117000
     17 C2          -0.4480    -2.6480    14.2510 ca         1 CN7      -0.157000
     18 C3          -0.6980     0.0010     1.1940 ca         1 CN7      -0.146000
     19 C9           3.5130     0.0370     6.1020 ca         1 CN7      -0.086000
     20 C11         -0.0150     0.0020     2.3940 ca         1 CN7      -0.115000
     21 C12          2.7090     1.1670     4.1520 ca         1 CN7      -0.124000
     22 C14          3.8000    -3.9230    12.4420 ca         1 CN7      -0.248000
     23 C16          1.6680    -3.2790    13.3350 ca         1 CN7      -0.061000
     24 C18          1.3780     0.0010     2.4000 cp         1 CN7      -0.017000
     25 C19          2.1170     0.0010     3.6860 cp         1 CN7      -0.063000
     26 C23          2.5460    -3.4150    12.2420 ca         1 CN7       0.179100
     27 C27          0.5170    -2.8890     0.2010 c3         1 CN7       0.120300
     28 C29         -0.3460    -3.4180    -0.9480 c3         1 CN7       0.137900
     29 C30          3.5830    -0.0010     1.1930 c3         1 CN7      -0.045800
     30 C32          2.4740    -2.7480     8.6200 c3         1 CN7      -0.072400
     31 C34          1.9020    -3.5580     2.0710 c3         1 CN7       0.151800
     32 C35          3.0950    -3.2140     9.9380 c3         1 CN7       0.132400
     33 N36          1.7640    -2.4580     4.2520 na         1 CN7      -0.031400
     34 N37          1.1100    -4.0230     0.9240 n3         1 CN7      -0.711600
     35 O38          2.2680    -5.2550     6.4750 o          1 CN7      -0.821300
     36 O39          0.4550    -4.2440    -1.7980 os         1 CN7      -0.441600
     37 O40          1.1560    -5.3230     4.5540 o          1 CN7      -0.821300
     38 O41          2.1500    -3.0470    10.9970 os         1 CN7      -0.324900
     39 H1          -0.5390    -0.0000    -0.9400 ha         1 CN7       0.120000
     40 H2           3.8570     2.0920     5.7040 ha         1 CN7       0.110000
     41 H5           0.0270    -2.4610    12.1900 ha         1 CN7       0.152000
     42 H6           3.7420    -4.4900    15.7730 ha         1 CN7       0.123000
     43 H7           1.9240    -0.0010    -0.9390 ha         1 CN7       0.126000
     44 H8           2.7330    -4.2500    -0.3820 h1         1 CN7       0.045200
     45 H9           2.3290    -5.6900     0.5680 h1         1 CN7       0.045200
     46 H10          1.6580    -5.9170    -1.8240 h1         1 CN7       0.045950
     47 H11          0.2680    -5.9950    -0.7270 h1         1 CN7       0.045950
     48 H12         -0.6960    -2.9290    16.3620 ha         1 CN7       0.118000
     49 H13         -1.4470    -2.2510    14.1210 ha         1 CN7       0.124000
     50 H14         -1.7810     0.0010     1.1880 ha         1 CN7       0.124000
     51 H15          4.0570     0.0580     7.0390 ha         1 CN7       0.118000
     52 H16         -0.5620     0.0020     3.3290 ha         1 CN7       0.142000
     53 H17          2.6300     2.0790     3.5730 ha         1 CN7       0.117000
     54 H18          4.4750    -4.0270    11.6010 ha         1 CN7       0.142000
     55 H19          1.3060    -2.2640    -0.2000 h1         1 CN7       0.045200
     56 H20         -0.1000    -2.3110     0.8790 h1         1 CN7       0.045200
     57 H21         -0.7370    -2.5850    -1.5190 h1         1 CN7       0.045950
     58 H22         -1.1640    -4.0030    -0.5440 h1         1 CN7       0.045950
     59 H23          3.9450     0.9930     1.4270 hc         1 CN7       0.045367
     60 H24          3.9440    -0.7010     1.9360 hc         1 CN7       0.045367
     61 H25          3.9430    -0.2960     0.2150 hc         1 CN7       0.045367
     62 H28          2.2020    -1.7020     8.6990 hc         1 CN7       0.060200
     63 H29          1.5880    -3.3360     8.4110 hc         1 CN7       0.060200
     64 H32          2.4170    -4.3990     2.5190 h1         1 CN7       0.050200
     65 H33          2.6280    -2.8270     1.7370 h1         1 CN7       0.050200
     66 H34          3.3670    -4.2600     9.8580 h1         1 CN7       0.036200
     67 H35          3.9800    -2.6260    10.1470 h1         1 CN7       0.036200
     68 C25          1.8700    -4.6650     5.4900 c          1 CN7       0.894800
     69 C33          0.9740    -2.9200     3.1070 c3         1 CN7       0.042300
     70 H3           5.2200    -4.7040    13.8450 ha         1 CN7       0.121000
     71 H30          0.2480    -3.6510     3.4410 h1         1 CN7       0.083700
     72 H31          0.4590    -2.0770     2.6600 h1         1 CN7       0.083700
     73 C31          3.4860    -2.9280     7.4870 c3         1 CN7       0.008800
     74 H4           1.5450    -3.8310    16.7110 ha         1 CN7       0.125000
     75 H26          4.3710    -2.3390     7.6960 hc         1 CN7       0.052200
     76 H27          3.7580    -3.9730     7.4080 hc         1 CN7       0.052200
@<TRIPOS>BOND
     1    36    15 1
     2    36    28 1
     3    15    14 1
     4     1    18 ar
     5     1     7 ar
     6    18    20 ar
     7    28    27 1
     8    14    34 1
     9     7    10 ar
    10    20    24 ar
    11    27    34 1
    12    34    31 1
    13    10    24 ar
    14    10    29 1
    15    24    25 1
    16    31    69 1
    17    69    33 1
    18    25    21 ar
    19    25    12 ar
    20    21     2 ar
    21    33    12 1
    22    33    13 1
    23    12     9 ar
    24     2    19 ar
    25    13    68 1
    26    13    11 2
    27     9    19 ar
    28     9    11 1
    29    35    68 1
    30    68    37 1
    31    11    73 1
    32     3    22 ar
    33     3     6 ar
    34    22    26 ar
    35    32    30 1
    36    32    38 1
    37    73    30 1
    38     6     8 ar
    39    26    38 1
    40    26    23 ar
    41     8    23 ar
    42     8     4 ar
    43    23     5 ar
    44     4    16 ar
    45     5    17 ar
    46    16    17 ar
    47     1    39 1
    48     2    40 1
    49     3    70 1
    50     4    74 1
    51     5    41 1
    52     6    42 1
    53     7    43 1
    54    14    44 1
    55    14    45 1
    56    15    46 1
    57    15    47 1
    58    16    48 1
    59    17    49 1
    60    18    50 1
    61    19    51 1
    62    20    52 1
    63    21    53 1
    64    22    54 1
    65    27    55 1
    66    27    56 1
    67    28    57 1
    68    28    58 1
    69    29    59 1
    70    29    60 1
    71    29    61 1
    72    73    75 1
    73    73    76 1
    74    30    62 1
    75    30    63 1
    76    69    71 1
    77    69    72 1
    78    31    64 1
    79    31    65 1
    80    32    66 1
    81    32    67 1
@<TRIPOS>SUBSTRUCTURE
     1 CN7         1 TEMP              0 ****  ****    0 ROOT
