@<TRIPOS>MOLECULE
CN7
   76    81     1     0     0
SMALL
bcc


@<TRIPOS>ATOM
      1 C4           0.0000     0.0000     0.0000 ca         1 CN7      -0.114000
      2 C5           3.4000     1.1740     5.3540 ca         1 CN7      -0.162000
      3 C6           4.2220    -4.3050    13.7130 ca         1 CN7      -0.042000
      4 C7           1.2270    -3.5360    15.7180 ca         1 CN7      -0.113000
      5 C8           0.3720    -2.7640    13.1710 ca         1 CN7      -0.050000
      6 C10          3.3980    -4.1880    14.7910 ca         1 CN7      -0.161000
      7 C13          1.3830     0.0000     0.0000 ca         1 CN7      -0.109000
      8 C15          2.1020    -3.6720    14.6270 ca         1 CN7       0.003000
      9 C17          2.9310    -1.1580     5.6560 ca         1 CN7      -0.099800
     10 C20          2.0750     0.0000     1.1930 ca         1 CN7      -0.079300
     11 C21          2.8730    -2.4680     6.1880 cc         1 CN7      -0.154400
     12 C22          2.2210    -1.1780     4.4410 ca         1 CN7      -0.232200
     13 C24          2.1660    -3.2370     5.3180 cd         1 CN7      -0.238300
     14 C26          1.9250    -4.8470     0.0210 c3         1 CN7       0.085300
     15 C28          1.0480    -5.3580    -1.1260 c3         1 CN7       0.213400
     16 C1          -0.0220    -3.0320    15.5200 ca         1 CN7      -0.092000
     17 C2          -0.4480    -2.6480    14.2510 ca         1 CN7      -0.133000
     18 C3          -0.6980     0.0010     1.1940 ca         1 CN7      -0.118000
     19 C9           3.5130     0.0370     6.1020 ca         1 CN7      -0.048000
     20 C11         -0.0150     0.0020     2.3940 ca         1 CN7      -0.091000
     21 C12          2.7090     1.1670     4.1520 ca         1 CN7      -0.108000
     22 C14          3.8000    -3.9230    12.4420 ca         1 CN7      -0.244000
     23 C16          1.6680    -3.2790    13.3350 ca         1 CN7      -0.067000
     24 C18          1.3780     0.0010     2.4000 cp         1 CN7      -0.006000
     25 C19          2.1170     0.0010     3.6860 cp         1 CN7      -0.044000
     26 C23          2.5460    -3.4150    12.2420 ca         1 CN7       0.193100
     27 C27          0.5170    -2.8890     0.2010 c3         1 CN7       0.085300
     28 C29         -0.3460    -3.4180    -0.9480 c3         1 CN7       0.213400
     29 C30          3.5830    -0.0010     1.1930 c3         1 CN7       0.054200
     30 C32          2.4740    -2.7480     8.6200 c3         1 CN7      -0.033400
     31 C34          1.9020    -3.5580     2.0710 c3         1 CN7       0.136800
     32 C35          3.0950    -3.2140     9.9380 c3         1 CN7       0.196400
     33 N36          1.7640    -2.4580     4.2520 na         1 CN7       0.471600
     34 N37          1.1100    -4.0230     0.9240 n3         1 CN7      -0.509600
     35 O38          2.2680    -5.2550     6.4750 o          1 CN7      -0.872300
     36 O39          0.4550    -4.2440    -1.7980 os         1 CN7      -0.427600
     37 O40          1.1560    -5.3230     4.5540 o          1 CN7      -0.872300
     38 O41          2.1500    -3.0470    10.9970 os         1 CN7      -0.299900
     39 H1          -0.5390    -0.0000    -0.9400 ha         1 CN7       0.098000
     40 H2           3.8570     2.0920     5.7040 ha         1 CN7       0.089000
     41 H5           0.0270    -2.4610    12.1900 ha         1 CN7       0.121000
     42 H6           3.7420    -4.4900    15.7730 ha         1 CN7       0.102000
     43 H7           1.9240    -0.0010    -0.9390 ha         1 CN7       0.104000
     44 H8           2.7330    -4.2500    -0.3820 h1         1 CN7       0.025950
     45 H9           2.3290    -5.6900     0.5680 h1         1 CN7       0.025950
     46 H10          1.6580    -5.9170    -1.8240 h1         1 CN7       0.006950
     47 H11          0.2680    -5.9950    -0.7270 h1         1 CN7       0.006950
     48 H12         -0.6960    -2.9290    16.3620 ha         1 CN7       0.091000
     49 H13         -1.4470    -2.2510    14.1210 ha         1 CN7       0.099000
     50 H14         -1.7810     0.0010     1.1880 ha         1 CN7       0.100000
     51 H15          4.0570     0.0580     7.0390 ha         1 CN7       0.092000
     52 H16         -0.5620     0.0020     3.3290 ha         1 CN7       0.116000
     53 H17          2.6300     2.0790     3.5730 ha         1 CN7       0.093000
     54 H18          4.4750    -4.0270    11.6010 ha         1 CN7       0.130000
     55 H19          1.3060    -2.2640    -0.2000 h1         1 CN7       0.025950
     56 H20         -0.1000    -2.3110     0.8790 h1         1 CN7       0.025950
     57 H21         -0.7370    -2.5850    -1.5190 h1         1 CN7       0.006950
     58 H22         -1.1640    -4.0030    -0.5440 h1         1 CN7       0.006950
     59 H23          3.9450     0.9930     1.4270 hc         1 CN7       0.012367
     60 H24          3.9440    -0.7010     1.9360 hc         1 CN7       0.012367
     61 H25          3.9430    -0.2960     0.2150 hc         1 CN7       0.012367
     62 H28          2.2020    -1.7020     8.6990 hc         1 CN7       0.030200
     63 H29          1.5880    -3.3360     8.4110 hc         1 CN7       0.030200
     64 H32          2.4170    -4.3990     2.5190 h1         1 CN7       0.027700
     65 H33          2.6280    -2.8270     1.7370 h1         1 CN7       0.027700
     66 H34          3.3670    -4.2600     9.8580 h1         1 CN7       0.003700
     67 H35          3.9800    -2.6260    10.1470 h1         1 CN7       0.003700
     68 C25          1.8700    -4.6650     5.4900 c          1 CN7       0.996800
     69 C33          0.9740    -2.9200     3.1070 c3         1 CN7      -0.106700
     70 H3           5.2200    -4.7040    13.8450 ha         1 CN7       0.092000
     71 H30          0.2480    -3.6510     3.4410 h1         1 CN7       0.071700
     72 H31          0.4590    -2.0770     2.6600 h1         1 CN7       0.071700
     73 C31          3.4860    -2.9280     7.4870 c3         1 CN7       0.063800
     74 H4           1.5450    -3.8310    16.7110 ha         1 CN7       0.100000
     75 H26          4.3710    -2.3390     7.6960 hc         1 CN7       0.026200
     76 H27          3.7580    -3.9730     7.4080 hc         1 CN7       0.026200
@<TRIPOS>BOND
     1     1     7 ar  
     2     1    18 ar  
     3     1    39 1   
     4     2    19 ar  
     5     2    21 ar  
     6     2    40 1   
     7     3     6 ar  
     8     3    22 ar  
     9     3    70 1   
    10     4     8 ar  
    11     4    16 ar  
    12     4    74 1   
    13     5    17 ar  
    14     5    23 ar  
    15     5    41 1   
    16     6     8 ar  
    17     6    42 1   
    18     7    10 ar  
    19     7    43 1   
    20     8    23 ar  
    21     9    11 1   
    22     9    12 ar  
    23     9    19 ar  
    24    10    24 ar  
    25    10    29 1   
    26    11    13 2   
    27    11    73 1   
    28    12    25 ar  
    29    12    33 1   
    30    13    33 1   
    31    13    68 1   
    32    14    15 1   
    33    14    34 1   
    34    14    44 1   
    35    14    45 1   
    36    15    36 1   
    37    15    46 1   
    38    15    47 1   
    39    16    17 ar  
    40    16    48 1   
    41    17    49 1   
    42    18    20 ar  
    43    18    50 1   
    44    19    51 1   
    45    20    24 ar  
    46    20    52 1   
    47    21    25 ar  
    48    21    53 1   
    49    22    26 ar  
    50    22    54 1   
    51    23    26 ar  
    52    24    25 1   
    53    26    38 1   
    54    27    28 1   
    55    27    34 1   
    56    27    55 1   
    57    27    56 1   
    58    28    36 1   
    59    28    57 1   
    60    28    58 1   
    61    29    59 1   
    62    29    60 1   
    63    29    61 1   
    64    30    32 1   
    65    30    62 1   
    66    30    63 1   
    67    30    73 1   
    68    31    34 1   
    69    31    64 1   
    70    31    65 1   
    71    31    69 1   
    72    32    38 1   
    73    32    66 1   
    74    32    67 1   
    75    33    69 1   
    76    35    68 1   
    77    37    68 1   
    78    69    71 1   
    79    69    72 1   
    80    73    75 1   
    81    73    76 1   
@<TRIPOS>SUBSTRUCTURE
     1 CN7         1 TEMP              0 ****  ****    0 ROOT
