@<TRIPOS>MOLECULE
CN8
   66    68     1     0     0
SMALL
bcc


@<TRIPOS>ATOM
      1 O5           0.0000     0.0000     0.0000 o          1 CN8      -0.612100
      2 C29          1.2130     0.0000     0.0000 c          1 CN8       0.566100
      3 N8           1.8870     0.0060    -1.1670 ns         1 CN8      -0.212900
      4 C30          1.1530     0.0120    -2.4360 c3         1 CN8       0.053000
      5 C31          2.1480     0.0180    -3.5990 c3         1 CN8      -0.008100
      6 C27          1.9670     0.0000     1.3050 c3         1 CN8       0.052500
      7 N7           1.0790     0.4410     2.3960 n7         1 CN8      -0.532200
      8 C26          0.9560    -0.6590     3.3770 c3         1 CN8       0.127800
      9 C28          2.4300    -1.4320     1.6430 c3         1 CN8      -0.042400
     10 C25          2.2360    -1.5080     3.1810 c3         1 CN8      -0.013300
     11 N6           2.0210    -2.8910     3.6140 ns         1 CN8      -0.169900
     12 C16          2.2050    -3.2290     4.9050 c          1 CN8       0.543100
     13 O4           2.5500    -2.3880     5.7090 o          1 CN8      -0.654100
     14 C15          1.9830    -4.6510     5.3520 c3         1 CN8       0.044500
     15 N5           2.8010    -4.9260     6.5400 n7         1 CN8      -0.580200
     16 C17          4.1700    -5.3010     6.1600 c3         1 CN8       0.172100
     17 C14          0.5050    -4.8540     5.6940 c3         1 CN8      -0.006700
     18 C12          0.2590    -6.3030     6.0220 cc         1 CN8       0.288600
     19 N4           0.5500    -7.3590     5.2520 nc         1 CN8      -0.317000
     20 N3           0.1960    -8.4320     5.8660 nd         1 CN8      -0.369800
     21 C13         -0.2940    -6.7950     7.1540 cd         1 CN8      -0.437600
     22 N2          -0.3180    -8.1410     7.0090 na         1 CN8       0.590400
     23 C11         -0.8340    -9.1000     7.9880 c3         1 CN8      -0.040700
     24 C10         -1.8870    -9.9900     7.3240 c3         1 CN8       0.036000
     25 N1          -2.4030   -10.9500     8.3030 ns         1 CN8      -0.203900
     26 C9          -3.3470   -11.8400     7.9390 c          1 CN8       0.595700
     27 O1          -3.7700   -11.8480     6.8000 o          1 CN8      -0.632100
     28 C4          -3.8670   -12.8070     8.9240 ca         1 CN8      -0.131600
     29 C3          -4.8460   -13.7320     8.5500 ca         1 CN8      -0.073500
     30 C2          -5.3280   -14.6290     9.4670 ca         1 CN8      -0.060500
     31 C1          -4.8420   -14.6200    10.7730 ca         1 CN8       0.049900
     32 S1          -5.4640   -15.7740    11.9500 sh         1 CN8      -0.358700
     33 C6          -3.8670   -13.6990    11.1490 ca         1 CN8      -0.060500
     34 C5          -3.3780   -12.8040    10.2350 ca         1 CN8      -0.073500
     35 H8           2.8870     0.0420    -1.1670 hn         1 CN8       0.171500
     36 H27          2.8250     0.6580     1.2410 h1         1 CN8       0.022700
     37 H301         0.5310     0.8970    -2.4890 h1         1 CN8       0.025200
     38 H302         0.5300    -0.8720    -2.4980 h1         1 CN8       0.025200
     39 H311         2.7760     0.8980    -3.5320 hc         1 CN8       0.007367
     40 H312         2.7650    -0.8710    -3.5500 hc         1 CN8       0.007367
     41 H313         1.6060     0.0310    -4.5370 hc         1 CN8       0.007367
     42 H7           1.4740     1.2450     2.8440 hn         1 CN8       0.248800
     43 H281         1.8050    -2.1630     1.1430 hc         1 CN8       0.029700
     44 H282         3.4730    -1.5670     1.3830 hc         1 CN8       0.029700
     45 H261         0.9190    -0.2620     4.3840 h1         1 CN8       0.035200
     46 H262         0.0750    -1.2530     3.1660 h1         1 CN8       0.035200
     47 H25          3.0770    -1.0600     3.6960 h1         1 CN8       0.059700
     48 H6           1.7390    -3.5850     2.9500 hn         1 CN8       0.182500
     49 H15          2.2650    -5.3290     4.5550 h1         1 CN8       0.059700
     50 H5           2.8280    -4.1120     7.1220 hn         1 CN8       0.283800
     51 H141        -0.1040    -4.5660     4.8460 hc         1 CN8       0.025200
     52 H142         0.2460    -4.2410     6.5490 hc         1 CN8       0.025200
     53 H171         4.5840    -5.9630     6.9100 h1         1 CN8       0.001700
     54 H172         4.1530    -5.8060     5.2020 h1         1 CN8       0.001700
     55 H173         4.7820    -4.4100     6.0870 h1         1 CN8       0.001700
     56 H13         -0.6510    -6.2260     8.0040 h4         1 CN8       0.162000
     57 H111        -0.0210    -9.7150     8.3550 h1         1 CN8       0.038700
     58 H112        -1.2840    -8.5650     8.8160 h1         1 CN8       0.038700
     59 H101        -2.7000    -9.3760     6.9570 h1         1 CN8       0.046700
     60 H102        -1.4370   -10.5250     6.4960 h1         1 CN8       0.046700
     61 H1          -2.0320   -10.9650     9.2320 hn         1 CN8       0.179500
     62 H3          -5.2250   -13.7390     7.5350 ha         1 CN8       0.117500
     63 HA          -2.6200   -12.0880    10.5290 ha         1 CN8       0.117500
     64 H2          -6.0870   -15.3450     9.1770 ha         1 CN8       0.122000
     65 HB          -4.8070   -16.9220    11.8340 hs         1 CN8       0.191800
     66 HC          -3.4900   -13.6960    12.1650 ha         1 CN8       0.122000
@<TRIPOS>BOND
     1     1     2 2   
     2     2     3 1   
     3     2     6 1   
     4     3     4 1   
     5     3    35 1   
     6     4     5 1   
     7     4    37 1   
     8     4    38 1   
     9     5    39 1   
    10     5    40 1   
    11     5    41 1   
    12     6     7 1   
    13     6     9 1   
    14     6    36 1   
    15     7     8 1   
    16     7    42 1   
    17     8    10 1   
    18     8    45 1   
    19     8    46 1   
    20     9    10 1   
    21     9    43 1   
    22     9    44 1   
    23    10    11 1   
    24    10    47 1   
    25    11    12 1   
    26    11    48 1   
    27    12    13 2   
    28    12    14 1   
    29    14    15 1   
    30    14    17 1   
    31    14    49 1   
    32    15    16 1   
    33    15    50 1   
    34    16    53 1   
    35    16    54 1   
    36    16    55 1   
    37    17    18 1   
    38    17    51 1   
    39    17    52 1   
    40    18    19 1   
    41    18    21 2   
    42    19    20 2   
    43    20    22 1   
    44    21    22 1   
    45    21    56 1   
    46    22    23 1   
    47    23    24 1   
    48    23    57 1   
    49    23    58 1   
    50    24    25 1   
    51    24    59 1   
    52    24    60 1   
    53    25    26 1   
    54    25    61 1   
    55    26    27 2   
    56    26    28 1   
    57    28    29 ar  
    58    28    34 ar  
    59    29    30 ar  
    60    29    62 1   
    61    30    31 ar  
    62    30    64 1   
    63    31    32 1   
    64    31    33 ar  
    65    32    65 1   
    66    33    34 ar  
    67    33    66 1   
    68    34    63 1   
@<TRIPOS>SUBSTRUCTURE
     1 CN8         1 TEMP              0 ****  ****    0 ROOT
