@<TRIPOS>MOLECULE
CNE
   79    82     1     0     0
SMALL
bcc


@<TRIPOS>ATOM
      1 C24          0.0000     0.0000     0.0000 c2         1 CNE      -0.202000
      2 C25          1.3910     0.0000     0.0000 c2         1 CNE       0.088000
      3 C20          2.0900     0.0000     1.2010 c2         1 CNE      -0.056000
      4 C21          1.4090     0.0100     2.3970 c2         1 CNE      -0.074000
      5 C22          0.0090     0.0100     2.4030 c3         1 CNE      -0.072000
      6 C23         -0.6900     0.0050     1.1900 c2         1 CNE      -0.100000
      7 C26         -0.7230     0.0140     3.6760 c2         1 CNE       0.020000
      8 C27         -2.0740     0.0130     3.6780 c2         1 CNE      -0.111000
      9 C28         -2.7800     0.0170     4.9080 c3         1 CNE       0.478000
     10 O7          -4.1290     0.0170     4.9110 os         1 CNE      -0.248000
     11 O6          -2.1700     0.0220     5.9590 o          1 CNE      -0.457000
     12 C29         -4.5400     0.0220     6.2790 c3         1 CNE       0.056000
     13 O8           2.0670    -0.0040    -1.1780 os         1 CNE      -0.158000
     14 C30          1.0870    -0.0090    -2.2170 c3         1 CNE       0.025000
     15 C31          1.7870    -0.0150    -3.5770 c3         1 CNE      -0.123000
     16 C19          3.5970     0.0000     1.1930 c3         1 CNE      -0.076000
     17 C18          4.1000    -1.4200     1.2030 c2         1 CNE       0.216000
     18 N2           5.4250    -1.6660     1.1990 ns         1 CNE       0.038000
     19 O5           3.3130    -2.3410     1.2150 o          1 CNE      -0.418000
     20 C14          5.9150    -3.0460     1.2070 c3         1 CNE      -0.084000
     21 C13          7.2440    -3.1040     1.9110 c2         1 CNE       0.233000
     22 C15          6.0770    -3.5390    -0.2320 c3         1 CNE      -0.100000
     23 C17          4.7050    -3.6190    -0.9020 c3         1 CNE      -0.128000
     24 C16          6.9680    -2.5650    -1.0060 c3         1 CNE      -0.128000
     25 O4           7.8800    -2.0870     2.0900 o          1 CNE      -0.445000
     26 N1           7.7280    -4.2840     2.3430 ns         1 CNE       0.092000
     27 C10          8.9620    -4.3270     3.1320 c3         1 CNE      -0.091000
     28 C9          10.0780    -4.8870     2.2890 c2         1 CNE       0.273000
     29 C11          8.7530    -5.2170     4.3580 c3         1 CNE      -0.171000
     30 C12          7.6390    -4.6540     5.2030 c2         1 CNE       0.393000
     31 O2           7.2410    -5.3040     6.3090 o          1 CNE      -0.622500
     32 O3           7.1040    -3.6190     4.8850 o          1 CNE      -0.622500
     33 C8          11.4990    -4.4520     2.5340 c3         1 CNE      -0.228000
     34 O1           9.8340    -5.6860     1.4160 o          1 CNE      -0.312000
     35 S1          12.6020    -5.2960     1.3680 ss         1 CNE       0.011000
     36 C7          14.1970    -4.6020     1.8800 c3         1 CNE      -0.155000
     37 C6          15.2940    -5.1780     1.0240 ca         1 CNE      -0.082000
     38 C5          15.6590    -4.5450    -0.1520 ca         1 CNE       0.099000
     39 C4          16.6680    -5.0740    -0.9390 ca         1 CNE      -0.137000
     40 C3          17.3110    -6.2330    -0.5490 ca         1 CNE      -0.071000
     41 C2          16.9470    -6.8650     0.6250 ca         1 CNE      -0.114000
     42 C1          15.9420    -6.3340     1.4140 ca         1 CNE      -0.084000
     43 F1          15.0300    -3.4110    -0.5330 f          1 CNE      -0.086000
     44 Cl1         15.4870    -7.1280     2.8890 cl         1 CNE       0.084000
     45 H24         -0.5410    -0.0020    -0.9390 ha         1 CNE       0.130000
     46 H21          1.9550     0.0120     3.3330 ha         1 CNE       0.129000
     47 H23         -1.7730     0.0040     1.1880 ha         1 CNE       0.117000
     48 H26         -0.5800     0.8860     3.0490 DU         1 CNE       0.118000
     49 H27         -2.2200     0.8900     4.2970 DU         1 CNE       0.010000
     50 H291        -5.6220     0.0130     6.3310 h1         1 CNE       0.043000
     51 H292        -4.1470    -0.8560     6.7770 h1         1 CNE       0.043000
     52 H293        -4.1630     0.9130     6.7660 h1         1 CNE       0.043000
     53 H301         0.4680    -0.8940    -2.1260 h1         1 CNE       0.047500
     54 H302         0.4680     0.8750    -2.1340 h1         1 CNE       0.047500
     55 H311         2.2620    -0.9760    -3.7350 hc         1 CNE       0.048667
     56 H312         2.5370     0.7660    -3.6010 hc         1 CNE       0.048667
     57 H313         1.0580     0.1590    -4.3590 hc         1 CNE       0.048667
     58 H191         3.9540     0.5030     0.3020 hc         1 CNE       0.074500
     59 H192         3.9630     0.5190     2.0710 hc         1 CNE       0.074500
     60 HN2          6.0750    -0.9050     1.2370 hn         1 CNE       0.107000
     61 H14          5.2040    -3.6770     1.7270 h1         1 CNE       0.121000
     62 H15          6.5340    -4.5220    -0.2270 hc         1 CNE       0.072000
     63 H171         4.7870    -4.1730    -1.8290 hc         1 CNE       0.048333
     64 H172         4.3460    -2.6180    -1.1100 hc         1 CNE       0.048333
     65 H173         4.0090    -4.1210    -0.2410 hc         1 CNE       0.048333
     66 H161         6.4570    -1.6160    -1.1140 hc         1 CNE       0.048333
     67 H162         7.1830    -2.9740    -1.9860 hc         1 CNE       0.048333
     68 H163         7.8950    -2.4170    -0.4660 hc         1 CNE       0.048333
     69 HN1          7.2390    -5.1320     2.1330 hn         1 CNE       0.088000
     70 H10          9.2200    -3.3250     3.4530 h1         1 CNE       0.129000
     71 H111         8.4920    -6.2180     4.0370 hc         1 CNE       0.058500
     72 H112         9.6660    -5.2500     4.9400 hc         1 CNE       0.058500
     73 H81         11.5780    -3.3810     2.3950 h1         1 CNE       0.097500
     74 H82         11.7850    -4.7060     3.5480 h1         1 CNE       0.097500
     75 H71         14.3810    -4.8490     2.9180 h1         1 CNE       0.087000
     76 H72         14.1760    -3.5250     1.7630 h1         1 CNE       0.087000
     77 H4          16.9530    -4.5790    -1.8590 ha         1 CNE       0.118000
     78 H3          18.1000    -6.6490    -1.1660 ha         1 CNE       0.105000
     79 H2          17.4530    -7.7730     0.9310 ha         1 CNE       0.115000
@<TRIPOS>BOND
     1     1     2 1   
     2     1     6 1   
     3     1    45 1   
     4     2     3 1   
     5     2    13 1   
     6     3     4 1   
     7     3    16 1   
     8     4     5 1   
     9     4    46 1   
    10     5     6 1   
    11     5     7 1   
    12     5    48 1   
    13     6    47 1   
    14     7     8 1   
    15     7    48 1   
    16     8     9 1   
    17     8    49 1   
    18     9    10 1   
    19     9    11 1   
    20     9    49 1   
    21    10    12 1   
    22    12    50 1   
    23    12    51 1   
    24    12    52 1   
    25    13    14 1   
    26    14    15 1   
    27    14    53 1   
    28    14    54 1   
    29    15    55 1   
    30    15    56 1   
    31    15    57 1   
    32    16    17 1   
    33    16    58 1   
    34    16    59 1   
    35    17    18 1   
    36    17    19 1   
    37    18    20 1   
    38    18    60 1   
    39    20    21 1   
    40    20    22 1   
    41    20    61 1   
    42    21    25 1   
    43    21    26 1   
    44    22    23 1   
    45    22    24 1   
    46    22    62 1   
    47    23    63 1   
    48    23    64 1   
    49    23    65 1   
    50    24    66 1   
    51    24    67 1   
    52    24    68 1   
    53    26    27 1   
    54    26    69 1   
    55    27    28 1   
    56    27    29 1   
    57    27    70 1   
    58    28    33 1   
    59    28    34 1   
    60    29    30 1   
    61    29    71 1   
    62    29    72 1   
    63    30    31 1   
    64    30    32 1   
    65    33    35 1   
    66    33    73 1   
    67    33    74 1   
    68    35    36 1   
    69    36    37 1   
    70    36    75 1   
    71    36    76 1   
    72    37    38 1   
    73    37    42 1   
    74    38    39 1   
    75    38    43 1   
    76    39    40 1   
    77    39    77 1   
    78    40    41 1   
    79    40    78 1   
    80    41    42 1   
    81    41    79 1   
    82    42    44 1   
@<TRIPOS>SUBSTRUCTURE
     1 CNE         1 TEMP              0 ****  ****    0 ROOT
