@<TRIPOS>MOLECULE
molecule
   79    80     1     0     0
SMALL
bcc


@<TRIPOS>ATOM
      1 C24          0.0000     0.0000     0.0000 ca         1 CNE      -0.234000
      2 C25          1.3910     0.0000     0.0000 ca         1 CNE       0.153100
      3 C20          2.0900     0.0000     1.2010 ca         1 CNE      -0.087300
      4 C21          1.4090     0.0100     2.3970 ca         1 CNE      -0.040000
      5 C22          0.0090     0.0100     2.4030 ca         1 CNE      -0.132800
      6 C23         -0.6900     0.0050     1.1900 ca         1 CNE      -0.067000
      7 C26         -0.7230     0.0140     3.6760 ce         1 CNE       0.024800
      8 C27         -2.0740     0.0130     3.6780 cf         1 CNE      -0.276200
      9 C28         -2.7800     0.0170     4.9080 c          1 CNE       0.631300
     10 O7          -4.1290     0.0170     4.9110 os         1 CNE      -0.400900
     11 O6          -2.1700     0.0220     5.9590 o          1 CNE      -0.561000
     12 C29         -4.5400     0.0220     6.2790 c3         1 CNE       0.116700
     13 O8           2.0670    -0.0040    -1.1780 os         1 CNE      -0.291900
     14 C30          1.0870    -0.0090    -2.2170 c3         1 CNE       0.113400
     15 C31          1.7870    -0.0150    -3.5770 c3         1 CNE      -0.098100
     16 C19          3.5970     0.0000     1.1930 c3         1 CNE      -0.106100
     17 C18          4.1000    -1.4200     1.2030 c          1 CNE       0.665100
     18 N2           5.4250    -1.6660     1.1990 ns         1 CNE      -0.555900
     19 O5           3.3130    -2.3410     1.2150 o          1 CNE      -0.614100
     20 C14          5.9150    -3.0460     1.2070 c3         1 CNE       0.048700
     21 C13          7.2440    -3.1040     1.9110 c          1 CNE       0.682100
     22 C15          6.0770    -3.5390    -0.2320 c3         1 CNE      -0.087700
     23 C17          4.7050    -3.6190    -0.9020 c3         1 CNE      -0.089100
     24 C16          6.9680    -2.5650    -1.0060 c3         1 CNE      -0.089100
     25 O4           7.8800    -2.0870     2.0900 o          1 CNE      -0.639100
     26 N1           7.7280    -4.2840     2.3430 ns         1 CNE      -0.526900
     27 C10          8.9620    -4.3270     3.1320 c3         1 CNE       0.046700
     28 C9          10.0780    -4.8870     2.2890 c          1 CNE       0.565100
     29 C11          8.7530    -5.2170     4.3580 c3         1 CNE      -0.195400
     30 C12          7.6390    -4.6540     5.2030 c          1 CNE       0.889600
     31 O2           7.2410    -5.3040     6.3090 o          1 CNE      -0.838300
     32 O3           7.1040    -3.6190     4.8850 o          1 CNE      -0.838300
     33 C8          11.4990    -4.4520     2.5340 c3         1 CNE      -0.101300
     34 O1           9.8340    -5.6860     1.4160 o          1 CNE      -0.527100
     35 S1          12.6020    -5.2960     1.3680 ss         1 CNE      -0.276200
     36 C7          14.1970    -4.6020     1.8800 c3         1 CNE       0.034000
     37 C6          15.2940    -5.1780     1.0240 ca         1 CNE      -0.094300
     38 C5          15.6590    -4.5450    -0.1520 ca         1 CNE       0.155900
     39 C4          16.6680    -5.0740    -0.9390 ca         1 CNE      -0.171000
     40 C3          17.3110    -6.2330    -0.5490 ca         1 CNE      -0.101000
     41 C2          16.9470    -6.8650     0.6250 ca         1 CNE      -0.140000
     42 C1          15.9420    -6.3340     1.4140 ca         1 CNE       0.062400
     43 F1          15.0300    -3.4110    -0.5330 f          1 CNE      -0.127900
     44 Cl1         15.4870    -7.1280     2.8890 cl         1 CNE      -0.084400
     45 H24         -0.5410    -0.0020    -0.9390 ha         1 CNE       0.139000
     46 H21          1.9550     0.0120     3.3330 ha         1 CNE       0.151000
     47 H23         -1.7730     0.0040     1.1880 ha         1 CNE       0.132000
     48 H26         -0.1800     0.0190     4.6130 ha         1 CNE       0.160000
     49 H27         -2.6180     0.0080     2.7410 ha         1 CNE       0.140000
     50 H291        -4.1560    -0.8620     6.7740 h1         1 CNE       0.047700
     51 H292        -4.1540     0.9080     6.7690 h1         1 CNE       0.047700
     52 H293        -5.6220     0.0230     6.3310 h1         1 CNE       0.047700
     53 H301         0.4680     0.8750    -2.1340 h1         1 CNE       0.040700
     54 H302         0.4680    -0.8940    -2.1260 h1         1 CNE       0.040700
     55 H311         1.0700     0.2240    -4.3530 hc         1 CNE       0.046033
     56 H312         2.2060    -0.9970    -3.7630 hc         1 CNE       0.046033
     57 H313         2.5800     0.7220    -3.5780 hc         1 CNE       0.046033
     58 H191         3.9540     0.5030     0.3020 hc         1 CNE       0.071200
     59 H192         3.9630     0.5190     2.0710 hc         1 CNE       0.071200
     60 HN2          6.0750    -0.9050     1.2230 hn         1 CNE       0.332500
     61 H14          5.2040    -3.6770     1.7270 h1         1 CNE       0.105700
     62 H15          6.5340    -4.5220    -0.2270 hc         1 CNE       0.058700
     63 H171         3.9880    -4.0440    -0.2090 hc         1 CNE       0.036367
     64 H172         4.7690    -4.2440    -1.7840 hc         1 CNE       0.036367
     65 H173         4.3840    -2.6240    -1.1870 hc         1 CNE       0.036367
     66 H161         7.0250    -2.8750    -2.0430 hc         1 CNE       0.036367
     67 H162         7.9610    -2.5640    -0.5750 hc         1 CNE       0.036367
     68 H163         6.5480    -1.5680    -0.9490 hc         1 CNE       0.036367
     69 HN1          7.2440    -5.1330     2.1250 hn         1 CNE       0.321500
     70 H10          9.2200    -3.3250     3.4530 h1         1 CNE       0.110700
     71 H111         8.4920    -6.2180     4.0370 hc         1 CNE       0.044200
     72 H112         9.6660    -5.2500     4.9400 hc         1 CNE       0.044200
     73 H81         11.5780    -3.3810     2.3950 h1         1 CNE       0.082700
     74 H82         11.7850    -4.7060     3.5480 h1         1 CNE       0.082700
     75 H71         14.1760    -3.5250     1.7630 h1         1 CNE       0.073700
     76 H72         14.3810    -4.8490     2.9180 h1         1 CNE       0.073700
     77 H4          16.9530    -4.5790    -1.8590 ha         1 CNE       0.145000
     78 H3          18.1000    -6.6490    -1.1660 ha         1 CNE       0.137000
     79 H2          17.4530    -7.7730     0.9310 ha         1 CNE       0.145000
@<TRIPOS>BOND
     1     1     2 ar
     2     1     6 ar
     3     1    45 1
     4     2     3 ar
     5     2    13 1
     6     3     4 ar
     7     3    16 1
     8     4     5 ar
     9     4    46 1
    10     5     6 ar
    11     5     7 1
    12     6    47 1
    13     7     8 2
    14     7    48 1
    15     8     9 1
    16     8    49 1
    17     9    10 1
    18     9    11 2
    19    10    12 1
    20    12    50 1
    21    12    51 1
    22    12    52 1
    23    13    14 1
    24    14    15 1
    25    14    53 1
    26    14    54 1
    27    15    55 1
    28    15    56 1
    29    15    57 1
    30    16    17 1
    31    16    58 1
    32    16    59 1
    33    17    18 1
    34    17    19 2
    35    18    20 1
    36    18    60 1
    37    20    21 1
    38    20    22 1
    39    20    61 1
    40    21    25 2
    41    21    26 1
    42    22    23 1
    43    22    24 1
    44    22    62 1
    45    23    63 1
    46    23    64 1
    47    23    65 1
    48    24    66 1
    49    24    67 1
    50    24    68 1
    51    26    27 1
    52    26    69 1
    53    27    28 1
    54    27    29 1
    55    27    70 1
    56    28    33 1
    57    28    34 2
    58    29    30 1
    59    29    71 1
    60    29    72 1
    61    30    31 1
    62    30    32 1
    63    33    35 1
    64    33    73 1
    65    33    74 1
    66    35    36 1
    67    36    37 1
    68    36    75 1
    69    36    76 1
    70    37    38 ar
    71    37    42 ar
    72    38    39 ar
    73    38    43 1
    74    39    40 ar
    75    39    77 1
    76    40    41 ar
    77    40    78 1
    78    41    42 ar
    79    41    79 1
    80    42    44 1
@<TRIPOS>SUBSTRUCTURE
     1 CNE         1 TEMP              0 ****  ****    0 ROOT
