@<TRIPOS>MOLECULE
molecule
   13    12     1     0     0
SMALL
bcc


@<TRIPOS>ATOM
      1 C1           0.0000     0.0000     0.0000 c3         1 CNH       0.257900
      2 C2           1.5290     0.0000     0.0000 c3         1 CNH      -0.111100
      3 C3          -0.5110     0.0000     1.4420 c3         1 CNH      -0.111100
      4 C4          -0.4910    -1.2000    -0.6940 c1         1 CNH       0.172700
      5 O6          -0.4770     1.1660    -0.6740 oh         1 CNH      -0.616800
      6 N5          -0.8550    -2.1270    -1.2420 n1         1 CNH      -0.352800
      7 HC21         1.8900     0.0540    -1.0200 hc         1 CNH       0.056033
      8 HC22         2.0220    -0.9500     0.1650 hc         1 CNH       0.056033
      9 HC23         2.1160     0.8340     0.3660 hc         1 CNH       0.056033
     10 HC31        -1.5820     0.1560     1.4860 hc         1 CNH       0.056033
     11 HC32        -0.0350    -0.8850     1.8480 hc         1 CNH       0.056033
     12 HC33         0.2090     0.6810     1.8810 hc         1 CNH       0.056033
     13 HO6         -0.8380     1.0490    -1.5370 ho         1 CNH       0.426000
@<TRIPOS>BOND
     1     1     2 1
     2     1     3 1
     3     1     4 1
     4     1     5 1
     5     2     7 1
     6     2     8 1
     7     2     9 1
     8     3    10 1
     9     3    11 1
    10     3    12 1
    11     4     6 3
    12     5    13 1
@<TRIPOS>SUBSTRUCTURE
     1 CNH         1 TEMP              0 ****  ****    0 ROOT
