@<TRIPOS>MOLECULE
molecule
   19    20     1     0     0
SMALL
bcc


@<TRIPOS>ATOM
      1 C1           0.0000     0.0000     0.0000 c          1 CNI       0.567500
      2 C2           1.4960     0.0000     0.0000 c          1 CNI       0.569500
      3 C3           0.0060    -0.0090     2.3080 ca         1 CNI       0.028000
      4 C4           1.4900     0.0010     2.3090 ca         1 CNI       0.037000
      5 C5          -0.7020    -0.0070     3.5890 ca         1 CNI      -0.022000
      6 C6           2.1760     0.0120     3.5470 ca         1 CNI      -0.088000
      7 C8           1.4700     0.0130     4.7260 ca         1 CNI       0.084000
      8 O1          -0.6110    -0.0000    -1.0480 o          1 CNI      -0.381100
      9 O2           2.1080    -0.0010    -1.0490 o          1 CNI      -0.388100
     10 N2           2.1610     0.0000     1.1730 nc         1 CNI      -0.311400
     11 N1          -0.6640    -0.0040     1.1740 nc         1 CNI      -0.294400
     12 C7           0.0060     0.0030     4.7390 ca         1 CNI      -0.104200
     13 N3          -0.7110     0.0060     6.0340 no         1 CNI       0.288200
     14 O3          -1.9290    -0.0020     6.0560 o          1 CNI      -0.171000
     15 O5          -0.0830     0.0140     7.0770 o          1 CNI      -0.171000
     16 C            2.1810     0.0230     5.9690 cg         1 CNI       0.210800
     17 N17          2.7480     0.0120     6.9530 n1         1 CNI      -0.273800
     18 H5          -1.7590    -0.1220     3.3820 ha         1 CNI       0.211000
     19 H6           3.1850     0.1600     3.1810 ha         1 CNI       0.210000
@<TRIPOS>BOND
     1     1     2 1
     2     1     8 2
     3     1    11 1
     4     2     9 2
     5     2    10 1
     6     3     4 ar
     7     3     5 ar
     8     3    11 2
     9     4     6 ar
    10     4    10 2
    11     5    12 ar
    12     5    18 1
    13     6     7 ar
    14     6    19 1
    15     7    12 ar
    16     7    16 1
    17    12    13 1
    18    13    14 1
    19    13    15 1
    20    16    17 3
@<TRIPOS>SUBSTRUCTURE
     1 CNI         1 TEMP              0 ****  ****    0 ROOT
