@<TRIPOS>MOLECULE
molecule
   45    48     1     0     0
SMALL
bcc


@<TRIPOS>ATOM
      1 O5'          0.0000     0.0000     0.0000 os         1 CNK      -0.381600
      2 C5'          1.4290     0.0000     0.0000 c3         1 CNK       0.144100
      3 C4'          1.9380     0.0000     1.4440 c3         1 CNK       0.101100
      4 C3'          1.3730     1.2220     2.1760 c3         1 CNK       0.104100
      5 C2'         -0.1560     1.1890     2.0980 c3         1 CNK       0.114100
      6 C1'         -0.5830     1.1430     0.6280 c3         1 CNK       0.140800
      7 C1          -2.0850     1.0500     0.5450 cc         1 CNK       0.380800
      8 O2'         -0.6910     2.3620     2.7150 oh         1 CNK      -0.604800
      9 O3'          1.7830     1.1910     3.5440 oh         1 CNK      -0.604800
     10 O4'          3.3650     0.0570     1.4480 oh         1 CNK      -0.603800
     11 C6'          1.9400    -1.2490    -0.7200 c3         1 CNK       0.152400
     12 O6'          1.5620    -1.1930    -2.0970 oh         1 CNK      -0.600800
     13 N5          -2.9070     1.8920    -0.1410 na         1 CNK      -0.420700
     14 C4          -4.1770     1.4240     0.0680 cc         1 CNK       0.436000
     15 N3          -4.0740     0.3630     0.8390 nd         1 CNK      -0.358000
     16 N2          -2.8360     0.1450     1.1120 nd         1 CNK      -0.338000
     17 C6          -5.4250     2.0010    -0.4700 ca         1 CNK      -0.105500
     18 C11         -5.3980     3.1950    -1.1740 ca         1 CNK      -0.119000
     19 C10         -6.5700     3.7420    -1.6840 ca         1 CNK      -0.132000
     20 C9          -7.7710     3.1250    -1.5090 ca         1 CNK      -0.100000
     21 C8          -7.8450     1.9130    -0.8010 ca         1 CNK      -0.035000
     22 C7          -6.6620     1.3370    -0.2790 ca         1 CNK      -0.012000
     23 C15         -9.0740     1.2580    -0.6050 ca         1 CNK      -0.127000
     24 C14         -9.1090     0.0860     0.0860 ca         1 CNK      -0.117000
     25 C13         -7.9440    -0.4770     0.6030 ca         1 CNK      -0.129000
     26 C12         -6.7350     0.1250     0.4220 ca         1 CNK      -0.113000
     27 H1           1.7890     0.8870    -0.5070 h1         1 CNK       0.060700
     28 H2           1.6060    -0.9030     1.9420 h1         1 CNK       0.062700
     29 H3           1.7390     2.1250     1.7030 h1         1 CNK       0.057700
     30 H4          -0.5240     0.3060     2.6080 h1         1 CNK       0.080700
     31 H5          -0.2430     2.0410     0.1270 h1         1 CNK       0.051700
     32 H6          -0.8780     2.1830     3.6210 ho         1 CNK       0.422000
     33 H7           2.3420     1.9290     3.7220 ho         1 CNK       0.414000
     34 H8           3.7020    -0.5440     2.0920 ho         1 CNK       0.415000
     35 H9           3.0190    -1.2940    -0.6430 h1         1 CNK       0.039700
     36 H10          1.5080    -2.1310    -0.2630 h1         1 CNK       0.039700
     37 H11          2.0190    -1.8650    -2.5760 ho         1 CNK       0.405000
     38 H12         -2.6390     2.6880    -0.6840 hn         1 CNK       0.312700
     39 H13         -4.4560     3.7060    -1.3280 ha         1 CNK       0.119000
     40 H14         -6.5260     4.6760    -2.2310 ha         1 CNK       0.131000
     41 H15         -8.6720     3.5700    -1.9150 ha         1 CNK       0.134000
     42 H16         -9.9870     1.6840    -1.0010 ha         1 CNK       0.132000
     43 H17        -10.0580    -0.4120     0.2430 ha         1 CNK       0.128000
     44 H18         -7.9990    -1.4110     1.1490 ha         1 CNK       0.133000
     45 H19         -5.8380    -0.3240     0.8290 ha         1 CNK       0.192000
@<TRIPOS>BOND
     1     9     4 1
     2    10     3 1
     3     4     3 1
     4     4     5 1
     5     3     2 1
     6     8     5 1
     7     5     6 1
     8    12    11 1
     9     2    11 1
    10     2     1 1
    11     6     1 1
    12     6     7 1
    13    16     7 2
    14    16    15 1
    15     7    13 1
    16    15    14 2
    17    13    14 1
    18    14    17 1
    19    26    25 ar
    20    26    22 ar
    21    17    22 ar
    22    17    18 ar
    23    25    24 ar
    24    22    21 ar
    25    18    19 ar
    26    24    23 ar
    27    21    23 ar
    28    21    20 ar
    29    19    20 ar
    30     2    27 1
    31     3    28 1
    32     4    29 1
    33     5    30 1
    34     6    31 1
    35     8    32 1
    36     9    33 1
    37    10    34 1
    38    11    35 1
    39    11    36 1
    40    12    37 1
    41    13    38 1
    42    18    39 1
    43    19    40 1
    44    20    41 1
    45    23    42 1
    46    24    43 1
    47    25    44 1
    48    26    45 1
@<TRIPOS>SUBSTRUCTURE
     1 CNK         1 TEMP              0 ****  ****    0 ROOT
