@<TRIPOS>MOLECULE
molecule
   29    30     1     0     0
SMALL
bcc


@<TRIPOS>ATOM
      1 C1           0.0000     0.0000     0.0000 c3         1 CNL       0.148800
      2 C2           1.5280     0.0000     0.0000 c3         1 CNL      -0.100400
      3 C3           2.0200     0.0000     1.4520 c3         1 CNL      -0.076400
      4 C4           0.7880     0.0080     2.3670 c3         1 CNL      -0.092700
      5 C5          -0.0080    -1.2820     2.1320 c3         1 CNL      -0.076400
      6 C6          -0.5230    -1.2630     0.6870 c3         1 CNL      -0.100400
      7 C7          -0.4920     0.0090    -1.4500 c3         1 CNL      -0.080100
      8 C8          -0.0910     1.2030     1.9980 c3         1 CNL       0.150800
      9 C9          -1.3290     1.2060     2.8950 c3         1 CNL      -0.097600
     10 C10          0.6990     2.4930     2.2360 c3         1 CNL      -0.097600
     11 O           -0.4870     1.1610     0.6540 os         1 CNL      -0.389600
     12 H21          1.8920    -0.8850    -0.5070 hc         1 CNL       0.050450
     13 H22          1.8920     0.8850    -0.5070 hc         1 CNL       0.050450
     14 H31          2.6190     0.8830     1.6370 hc         1 CNL       0.044950
     15 H32          2.6100    -0.8890     1.6400 hc         1 CNL       0.044950
     16 H4           1.0930     0.0750     3.4040 hc         1 CNL       0.060700
     17 H51         -0.8450    -1.3270     2.8190 hc         1 CNL       0.044950
     18 H52          0.6340    -2.1420     2.2810 hc         1 CNL       0.044950
     19 H61         -0.1650    -2.1390     0.1610 hc         1 CNL       0.050450
     20 H62         -1.6070    -1.2560     0.6870 hc         1 CNL       0.050450
     21 H71         -0.1190    -0.8690    -1.9630 hc         1 CNL       0.042700
     22 H72         -1.5750     0.0040    -1.4640 hc         1 CNL       0.042700
     23 H73         -0.1280     0.8990    -1.9480 hc         1 CNL       0.042700
     24 H91         -2.0580     0.5050     2.5070 hc         1 CNL       0.040367
     25 H92         -1.0480     0.9160     3.9000 hc         1 CNL       0.040367
     26 H93         -1.7590     2.2010     2.9140 hc         1 CNL       0.040367
     27 H101         0.0110     3.3250     2.3300 hc         1 CNL       0.040367
     28 H102         1.3650     2.6680     1.4000 hc         1 CNL       0.040367
     29 H103         1.2780     2.3990     3.1460 hc         1 CNL       0.040367
@<TRIPOS>BOND
     1     1     2 1
     2     1     6 1
     3     1     7 1
     4     1    11 1
     5     2     3 1
     6     2    12 1
     7     2    13 1
     8     3     4 1
     9     3    14 1
    10     3    15 1
    11     4     5 1
    12     4     8 1
    13     4    16 1
    14     5     6 1
    15     5    17 1
    16     5    18 1
    17     6    19 1
    18     6    20 1
    19     7    21 1
    20     7    22 1
    21     7    23 1
    22     8     9 1
    23     8    10 1
    24     8    11 1
    25     9    24 1
    26     9    25 1
    27     9    26 1
    28    10    27 1
    29    10    28 1
    30    10    29 1
@<TRIPOS>SUBSTRUCTURE
     1 CNL         1 TEMP              0 ****  ****    0 ROOT
