@<TRIPOS>MOLECULE
CNL
   29    30     1     0     0
SMALL
bcc


@<TRIPOS>ATOM
      1 C1          0.0050   -0.0280   -0.0220 c3        1 CNL      0.153800
      2 C2          1.5410   -0.0000    0.0080 c3        1 CNL     -0.098400
      3 C3          2.0230   -0.0360    1.4500 c3        1 CNL     -0.074400
      4 C4          0.8100   -0.0220    2.3790 c3        1 CNL     -0.083700
      5 C5          0.0210   -1.3050    2.1240 c3        1 CNL     -0.074400
      6 C6         -0.4960   -1.2920    0.6930 c3        1 CNL     -0.098400
      7 C7         -0.5280    0.0600   -1.4400 c3        1 CNL     -0.083100
      8 C8         -0.0760    1.1950    2.0410 c3        1 CNL      0.154800
      9 C9         -1.3360    1.2210    2.9000 c3        1 CNL     -0.098100
     10 C10         0.6860    2.5040    2.2200 c3        1 CNL     -0.098100
     11 O          -0.5000    1.1320    0.6630 os        1 CNL     -0.414600
     12 H21         1.8950    0.9340   -0.4970 hc        1 CNL      0.049200
     13 H22         1.9370   -0.8750   -0.5650 hc        1 CNL      0.049200
     14 H31         2.6250   -0.9610    1.6390 hc        1 CNL      0.043700
     15 H32         2.6840    0.8400    1.6680 hc        1 CNL      0.043700
     16 H4          1.1320    0.0370    3.4490 hc        1 CNL      0.060700
     17 H51        -0.8270   -1.3870    2.8500 hc        1 CNL      0.043700
     18 H52         0.6870   -2.1910    2.2910 hc        1 CNL      0.043700
     19 H61        -0.1450   -2.1950    0.1350 hc        1 CNL      0.049200
     20 H62        -1.6160   -1.2920    0.6850 hc        1 CNL      0.049200
     21 H71        -0.1710    0.9990   -1.9260 hc        1 CNL      0.044367
     22 H72        -1.6430    0.0670   -1.4300 hc        1 CNL      0.044367
     23 H73        -0.1690   -0.8180   -2.0260 hc        1 CNL      0.044367
     24 H91        -1.8880    2.1770    2.7360 hc        1 CNL      0.041033
     25 H92        -1.0600    1.1370    3.9770 hc        1 CNL      0.041033
     26 H93        -2.0140    0.3800    2.6230 hc        1 CNL      0.041033
     27 H101        1.1470    2.5370    3.2350 hc        1 CNL      0.041033
     28 H102       -0.0110    3.3690    2.1050 hc        1 CNL      0.041033
     29 H103        1.4840    2.5990    1.4460 hc        1 CNL      0.041033
@<TRIPOS>BOND
     1    1    2 1   
     2    1    6 1   
     3    1    7 1   
     4    1   11 1   
     5    2    3 1   
     6    2   12 1   
     7    2   13 1   
     8    3    4 1   
     9    3   14 1   
    10    3   15 1   
    11    4    5 1   
    12    4    8 1   
    13    4   16 1   
    14    5    6 1   
    15    5   17 1   
    16    5   18 1   
    17    6   19 1   
    18    6   20 1   
    19    7   21 1   
    20    7   22 1   
    21    7   23 1   
    22    8    9 1   
    23    8   10 1   
    24    8   11 1   
    25    9   24 1   
    26    9   25 1   
    27    9   26 1   
    28   10   27 1   
    29   10   28 1   
    30   10   29 1   
@<TRIPOS>SUBSTRUCTURE
     1 CNL         1 TEMP              0 ****  ****    0 ROOT
