@<TRIPOS>MOLECULE
CNM
   10     9     1     0     0
SMALL
bcc


@<TRIPOS>ATOM
      1 C1           0.0000     0.0000     0.0000 c          1 CNM       0.309100
      2 O1           1.2130     0.0000     0.0000 o          1 CNM      -0.383100
      3 N1          -0.6740     0.0000     1.1670 nz         1 CNM       0.197600
      4 C2          -0.7520     0.0000    -1.3040 c3         1 CNM      -0.056100
      5 HN1         -1.2490    -0.8170     1.2200 hn         1 CNM       0.249133
      6 HN2         -0.0230     0.0000     1.9280 hn         1 CNM       0.249133
      7 H21         -1.3750    -0.8840    -1.3620 hc         1 CNM       0.062367
      8 H22         -1.3740     0.8850    -1.3630 hc         1 CNM       0.062367
      9 H23         -0.0470    -0.0000    -2.1270 hc         1 CNM       0.062367
     10 H13         -1.2490     0.8170     1.2200 hn         1 CNM       0.249133
@<TRIPOS>BOND
     1     1     2 2   
     2     1     3 1   
     3     1     4 1   
     4     3     5 1   
     5     3     6 1   
     6     3    10 1   
     7     4     7 1   
     8     4     8 1   
     9     4     9 1   
@<TRIPOS>SUBSTRUCTURE
     1 CNM         1 TEMP              0 ****  ****    0 ROOT
