@<TRIPOS>MOLECULE
molecule
    6     5     1     0     0
SMALL
bcc


@<TRIPOS>ATOM
      1 N1           0.0000     0.0000     0.0000 nz         1 CNN      -0.582200
      2 C            1.3540     0.0000     0.0000 c1         1 CNN       0.173600
      3 N2           2.4900     0.0000     0.0200 n1         1 CNN      -0.072800
      4 HN11        -0.3340    -0.8170     0.4720 hn         1 CNN       0.493800
      5 HN12        -0.3340     0.0000    -0.9440 hn         1 CNN       0.493800
      6 H13         -0.3340     0.8170     0.4720 hn         1 CNN       0.493800
@<TRIPOS>BOND
     1     1     2 1
     2     1     4 1
     3     1     5 1
     4     2     3 3
     5     6     1 1
@<TRIPOS>SUBSTRUCTURE
     1 CNN         1 TEMP              0 ****  ****    0 ROOT
