@<TRIPOS>MOLECULE
CNO
   70    72     1     0     0
SMALL
bcc


@<TRIPOS>ATOM
      1 C1           0.0000     0.0000     0.0000 c          1 CNO       0.985100
      2 O2           1.3410     0.0000     0.0000 o          1 CNO      -0.883550
      3 O3          -0.6040     0.0000     1.0470 o          1 CNO      -0.883550
      4 C4          -0.7550     0.0010    -1.3040 c3         1 CNO       0.050800
      5 C5          -0.3860    -1.2480    -2.1060 c3         1 CNO      -0.038850
      6 C6          -0.3860     1.2500    -2.1050 c3         1 CNO      -0.038850
      7 O7          -2.1600     0.0010    -1.0420 os         1 CNO      -0.281400
      8 C8          -2.7840    -0.0780    -2.2470 ca         1 CNO       0.150600
      9 C9          -3.1250    -1.3160    -2.7720 ca         1 CNO      -0.137500
     10 C10         -3.7590    -1.3940    -3.9970 ca         1 CNO      -0.082000
     11 C11         -3.0870     1.0780    -2.9500 ca         1 CNO      -0.137500
     12 C12         -3.7170     0.9950    -4.1770 ca         1 CNO      -0.082000
     13 C13         -4.0540    -0.2400    -4.6980 ca         1 CNO      -0.116300
     14 C14         -4.7460    -0.3280    -6.0340 c3         1 CNO      -0.027600
     15 C15         -6.2380    -0.2860    -5.8300 c          1 CNO       0.550600
     16 O16         -6.6960    -0.1920    -4.7110 o          1 CNO      -0.603100
     17 N17         -7.0660    -0.3510    -6.8920 ns         1 CNO      -0.054600
     18 C18         -8.4460    -0.2030    -6.7150 ca         1 CNO      -0.067400
     19 C19         -9.3290    -0.9050    -7.5230 ca         1 CNO      -0.178000
     20 C20         -8.9330     0.6500    -5.7340 ca         1 CNO      -0.114500
     21 C21        -10.2950     0.7960    -5.5580 ca         1 CNO      -0.063000
     22 C22        -11.1770     0.0960    -6.3560 ca         1 CNO      -0.114500
     23 C23        -10.6960    -0.7590    -7.3410 ca         1 CNO      -0.067400
     24 N24        -11.5900    -1.4690    -8.1490 ns         1 CNO      -0.054600
     25 C25        -12.7680    -0.9160    -8.4990 c          1 CNO       0.550600
     26 O26        -13.0130     0.2320    -8.1920 o          1 CNO      -0.603100
     27 C27        -13.7800    -1.7220    -9.2710 c3         1 CNO      -0.027600
     28 C28        -14.9990    -0.8790    -9.5340 ca         1 CNO      -0.116300
     29 C29        -15.0760    -0.1130   -10.6830 ca         1 CNO      -0.082000
     30 C30        -16.1930     0.6610   -10.9260 ca         1 CNO      -0.137500
     31 C31        -16.0440    -0.8740    -8.6290 ca         1 CNO      -0.082000
     32 C32        -17.1630    -0.0980    -8.8650 ca         1 CNO      -0.137500
     33 C33        -17.2400     0.6710   -10.0170 ca         1 CNO       0.150600
     34 O34        -18.3410     1.4310   -10.2550 os         1 CNO      -0.281400
     35 C35        -18.0680     2.7290    -9.7240 c3         1 CNO       0.050800
     36 C36        -17.6680     2.6060    -8.2540 c3         1 CNO      -0.038850
     37 C37        -16.9230     3.3700   -10.5120 c3         1 CNO      -0.038850
     38 C38        -19.3000     3.5890    -9.8400 c          1 CNO       0.985100
     39 O39        -20.3090     3.1360   -10.3270 o          1 CNO      -0.883550
     40 O40        -19.2770     4.8580    -9.4030 o          1 CNO      -0.883550
     41 HC51        -0.6990    -1.1210    -3.1350 hc         1 CNO       0.010617
     42 HC52        -0.8850    -2.1100    -1.6810 hc         1 CNO       0.010617
     43 H53C         0.6860    -1.3970    -2.0700 hc         1 CNO       0.010617
     44 HC61         0.6810     1.4250    -2.0310 hc         1 CNO       0.010617
     45 HC62        -0.6560     1.1050    -3.1440 hc         1 CNO       0.010617
     46 HC63        -0.9210     2.1050    -1.7090 hc         1 CNO       0.010617
     47 HC9         -2.8930    -2.2200    -2.2220 ha         1 CNO       0.120000
     48 H10C        -4.0260    -2.3600    -4.4080 ha         1 CNO       0.090500
     49 H11C        -2.8220     2.0450    -2.5410 ha         1 CNO       0.120000
     50 H12C        -3.9510     1.8980    -4.7270 ha         1 CNO       0.090500
     51 H141        -4.4740    -1.2570    -6.5200 hc         1 CNO       0.022450
     52 H142        -4.4420     0.5070    -6.6540 hc         1 CNO       0.022450
     53 H17N        -6.6920    -0.4890    -7.8100 hn         1 CNO       0.161000
     54 H19C        -8.9520    -1.5090    -8.3390 ha         1 CNO       0.102000
     55 H20C        -8.2440     1.2200    -5.1220 ha         1 CNO       0.139000
     56 H21C       -10.6720     1.4620    -4.7910 ha         1 CNO       0.106000
     57 H22C       -12.2440     0.1900    -6.1950 ha         1 CNO       0.139000
     58 H24N       -11.3660    -2.3990    -8.4450 hn         1 CNO       0.161000
     59 H271       -14.0610    -2.5950    -8.6950 hc         1 CNO       0.022450
     60 H272       -13.3480    -2.0360   -10.2140 hc         1 CNO       0.022450
     61 H29C       -14.2650    -0.1340   -11.4020 ha         1 CNO       0.090500
     62 H30C       -16.2810     1.2050   -11.8590 ha         1 CNO       0.120000
     63 H31C       -15.9930    -1.4930    -7.7410 ha         1 CNO       0.090500
     64 H32C       -18.0090    -0.1490    -8.1910 ha         1 CNO       0.120000
     65 H361       -16.6590     2.2160    -8.1850 hc         1 CNO       0.010617
     66 H362       -17.7100     3.5820    -7.7850 hc         1 CNO       0.010617
     67 H363       -18.3500     1.9330    -7.7480 hc         1 CNO       0.010617
     68 H371       -15.9770     2.9720   -10.1630 hc         1 CNO       0.010617
     69 H372       -16.9390     4.4430   -10.3630 hc         1 CNO       0.010617
     70 H373       -17.0410     3.1500   -11.5660 hc         1 CNO       0.010617
@<TRIPOS>BOND
     1     1     2 1   
     2     1     3 1   
     3     1     4 1   
     4     4     5 1   
     5     4     6 1   
     6     4     7 1   
     7     5    41 1   
     8     5    42 1   
     9     5    43 1   
    10     6    44 1   
    11     6    45 1   
    12     6    46 1   
    13     7     8 1   
    14     8     9 ar  
    15     8    11 ar  
    16     9    10 ar  
    17     9    47 1   
    18    10    13 ar  
    19    10    48 1   
    20    11    12 ar  
    21    11    49 1   
    22    12    13 ar  
    23    12    50 1   
    24    13    14 1   
    25    14    15 1   
    26    14    51 1   
    27    14    52 1   
    28    15    16 2   
    29    15    17 1   
    30    17    18 1   
    31    17    53 1   
    32    18    19 ar  
    33    18    20 ar  
    34    19    23 ar  
    35    19    54 1   
    36    20    21 ar  
    37    20    55 1   
    38    21    22 ar  
    39    21    56 1   
    40    22    23 ar  
    41    22    57 1   
    42    23    24 1   
    43    24    25 1   
    44    24    58 1   
    45    25    26 2   
    46    25    27 1   
    47    27    28 1   
    48    27    59 1   
    49    27    60 1   
    50    28    29 ar  
    51    28    31 ar  
    52    29    30 ar  
    53    29    61 1   
    54    30    33 ar  
    55    30    62 1   
    56    31    32 ar  
    57    31    63 1   
    58    32    33 ar  
    59    32    64 1   
    60    33    34 1   
    61    34    35 1   
    62    35    36 1   
    63    35    37 1   
    64    35    38 1   
    65    36    65 1   
    66    36    66 1   
    67    36    67 1   
    68    37    68 1   
    69    37    69 1   
    70    37    70 1   
    71    38    39 1   
    72    38    40 1   
@<TRIPOS>SUBSTRUCTURE
     1 CNO         1 TEMP              0 ****  ****    0 ROOT
