@<TRIPOS>MOLECULE
CNP
   45    45     1     0     0
SMALL
bcc


@<TRIPOS>ATOM
      1 C1           1.5060     0.0000     0.0000 c          1 CNP       0.951600
      2 O1A          2.1090     1.0410    -0.1100 o          1 CNP      -0.875800
      3 O1B          2.1770    -1.1560     0.1210 o          1 CNP      -0.875800
      4 C2           0.0000     0.0000     0.0000 c3         1 CNP       0.047800
      5 C12         -0.5090     0.0000     1.4430 c3         1 CNP       0.031800
      6 C13         -0.0080    -1.2320     2.1520 c2         1 CNP      -0.089200
      7 C14          0.7470    -1.1150     3.2160 c2         1 CNP      -0.202000
      8 C3          -0.5100     1.2510    -0.7180 c3         1 CNP      -0.066400
      9 C4           0.0320     1.2590    -2.1520 c3         1 CNP       0.160100
     10 O4          -0.5510     2.3400    -2.8820 oh         1 CNP      -0.587800
     11 C5          -0.3310    -0.0710    -2.8210 c3         1 CNP      -0.031300
     12 N5           0.3070    -0.1470    -4.1370 ns         1 CNP      -0.175900
     13 C10         -0.3390     0.3140    -5.2270 c          1 CNP       0.560100
     14 O10         -1.4470     0.7920    -5.1180 o          1 CNP      -0.644100
     15 C11          0.3180     0.2340    -6.5800 c3         1 CNP      -0.072100
     16 C6           0.1630    -1.2230    -1.9430 c3         1 CNP       0.128100
     17 O6          -0.4730    -1.1670    -0.6690 os         1 CNP      -0.355600
     18 C7          -0.1690    -2.5560    -2.6190 c3         1 CNP       0.187100
     19 O7          -1.5830    -2.6660    -2.7860 oh         1 CNP      -0.571800
     20 C8           0.3330    -3.7070    -1.7470 c3         1 CNP       0.162100
     21 O8           1.7470    -3.5970    -1.5800 oh         1 CNP      -0.549800
     22 C9           0.0030    -5.0400    -2.4230 c3         1 CNP       0.168400
     23 O9           0.4720    -6.1160    -1.6080 oh         1 CNP      -0.592800
     24 H121        -0.1460     0.8840     1.9540 hc         1 CNP       0.009200
     25 H122        -1.5920     0.0020     1.4440 hc         1 CNP       0.009200
     26 H13         -0.2720    -2.2150     1.7820 ha         1 CNP       0.103000
     27 H141         1.0120    -0.1320     3.5870 ha         1 CNP       0.073000
     28 H142         1.1070    -2.0010     3.7260 ha         1 CNP       0.073000
     29 H31         -0.1620     2.1340    -0.1950 hc         1 CNP       0.022700
     30 H32         -1.5930     1.2390    -0.7410 hc         1 CNP       0.022700
     31 H4           1.1090     1.3700    -2.1300 h1         1 CNP       0.050700
     32 HO4         -0.0960     3.1390    -2.6780 ho         1 CNP       0.377000
     33 H5          -1.4060    -0.1370    -2.9300 h1         1 CNP       0.078700
     34 HN5          1.2400    -0.4990    -4.2210 hn         1 CNP       0.171500
     35 H111         0.4320    -0.8050    -6.8650 hc         1 CNP       0.013033
     36 H112        -0.2990     0.7430    -7.3110 hc         1 CNP       0.013033
     37 H113         1.2920     0.7060    -6.5370 hc         1 CNP       0.013033
     38 H6           1.2350    -1.1380    -1.8120 h1         1 CNP       0.108700
     39 H7           0.3140    -2.5990    -3.5870 h1         1 CNP      -0.005300
     40 HO7         -1.7720    -3.0180    -3.6400 ho         1 CNP       0.369000
     41 H8          -0.1500    -3.6640    -0.7790 h1         1 CNP       0.049700
     42 HO8          2.0780    -4.3800    -1.1730 ho         1 CNP       0.394000
     43 H91          0.4860    -5.0830    -3.3910 h1         1 CNP      -0.013300
     44 H92         -1.0700    -5.1240    -2.5500 h1         1 CNP      -0.013300
     45 HO9          0.2120    -6.9370    -1.9910 ho         1 CNP       0.380000
@<TRIPOS>BOND
     1     1     2 1   
     2     1     3 1   
     3     1     4 1   
     4     4     5 1   
     5     4     8 1   
     6     4    17 1   
     7     5     6 1   
     8     5    24 1   
     9     5    25 1   
    10     6     7 2   
    11     6    26 1   
    12     7    27 1   
    13     7    28 1   
    14     8     9 1   
    15     8    29 1   
    16     8    30 1   
    17     9    10 1   
    18     9    11 1   
    19     9    31 1   
    20    10    32 1   
    21    11    12 1   
    22    11    16 1   
    23    11    33 1   
    24    12    13 1   
    25    12    34 1   
    26    13    14 2   
    27    13    15 1   
    28    15    35 1   
    29    15    36 1   
    30    15    37 1   
    31    16    17 1   
    32    16    18 1   
    33    16    38 1   
    34    18    19 1   
    35    18    20 1   
    36    18    39 1   
    37    19    40 1   
    38    20    21 1   
    39    20    22 1   
    40    20    41 1   
    41    21    42 1   
    42    22    23 1   
    43    22    43 1   
    44    22    44 1   
    45    23    45 1   
@<TRIPOS>SUBSTRUCTURE
     1 CNP         1 TEMP              0 ****  ****    0 ROOT
