@<TRIPOS>MOLECULE
molecule
   31    33     1     0     0
SMALL
bcc


@<TRIPOS>ATOM
      1 C1           0.0000     0.0000     0.0000 ca         1 CNQ      -0.150000
      2 C2           1.3630     0.0000     0.0000 ca         1 CNQ      -0.050300
      3 C3           2.0710     0.0000     1.2140 ca         1 CNQ       0.269300
      4 C4           1.3550     0.0070     2.4370 ca         1 CNQ       0.366300
      5 C5          -0.0610     0.0000     2.4100 ca         1 CNQ      -0.259900
      6 C6          -0.7180    -0.0010     1.1880 ca         1 CNQ      -0.060000
      7 N7           3.4100    -0.0010     1.2280 nb         1 CNQ      -0.624000
      8 C8           4.0510    -0.0010     2.3720 ca         1 CNQ       0.322900
      9 C9           3.3430    -0.0010     3.5880 cp         1 CNQ       0.455500
     10 N10          2.0210    -0.0020     3.5930 nb         1 CNQ      -0.658000
     11 C11         -0.8300     0.0010     3.6690 c          1 CNQ       0.494700
     12 N12         -2.1770    -0.0000     3.6360 nz         1 CNQ      -0.680400
     13 O13         -0.2480     0.0010     4.7360 o          1 CNQ      -0.375100
     14 C14          4.0850    -0.0020     4.8710 cp         1 CNQ      -0.187500
     15 C15          3.6310    -0.7720     5.9400 ca         1 CNQ      -0.078500
     16 C16          4.3280    -0.7740     7.1310 ca         1 CNQ      -0.124500
     17 C17          5.4700    -0.0030     7.2680 ca         1 CNQ       0.057400
     18 C18          5.9210     0.7680     6.2110 ca         1 CNQ      -0.124500
     19 C19          5.2350     0.7720     5.0160 ca         1 CNQ      -0.078500
     20 Cl24         6.3400    -0.0060     8.7710 cl         1 CNQ      -0.074400
     21 H1          -0.5320    -0.0010    -0.9430 ha         1 CNQ       0.166000
     22 H2           1.9030     0.0010    -0.9390 ha         1 CNQ       0.180000
     23 H6          -1.8010    -0.0010     1.1610 ha         1 CNQ       0.111000
     24 H8           5.0730    -0.1730     2.0600 h4         1 CNQ       0.072100
     25 H121        -2.4990    -0.8180     3.1570 hn         1 CNQ       0.474133
     26 H122        -2.5340     0.0000     4.5710 hn         1 CNQ       0.474133
     27 H15          2.6990    -1.3190     5.8570 ha         1 CNQ       0.146000
     28 H16          3.9820    -1.3800     7.9590 ha         1 CNQ       0.158500
     29 H18          6.8150     1.3690     6.3240 ha         1 CNQ       0.158500
     30 H19          5.5570     1.4190     4.2090 ha         1 CNQ       0.146000
     31 H123        -2.4980     0.7690     3.0820 hn         1 CNQ       0.474133
@<TRIPOS>BOND
     1     1     2 ar
     2     1     6 ar
     3     1    21 1
     4     2     3 ar
     5     2    22 1
     6     3     4 ar
     7     3     7 ar
     8     4     5 ar
     9     4    10 ar
    10     5     6 ar
    11     5    11 1
    12     6    23 1
    13     7     8 ar
    14     8     9 ar
    15     8    24 1
    16     9    10 ar
    17     9    14 1
    18    11    12 1
    19    11    13 2
    20    12    25 1
    21    12    26 1
    22    14    15 ar
    23    14    19 ar
    24    15    16 ar
    25    15    27 1
    26    16    17 ar
    27    16    28 1
    28    17    18 ar
    29    17    20 1
    30    18    19 ar
    31    18    29 1
    32    19    30 1
    33    31    12 1
@<TRIPOS>SUBSTRUCTURE
     1 CNQ         1 TEMP              0 ****  ****    0 ROOT
