@<TRIPOS>MOLECULE
CNR
   10     9     1     0     0
SMALL
bcc


@<TRIPOS>ATOM
      1 C1          0.0260   -0.3300    0.0310 c         1 CNR      0.918600
      2 C2          1.5740   -0.2540    0.1120 c3        1 CNR     -0.041300
      3 C3          2.0220    0.4600    1.3570 c3        1 CNR     -0.085100
      4 CL          2.2410    0.5670   -1.3290 cl        1 CNR     -0.279400
      5 O1A        -0.6440    0.6940    0.3290 o         1 CNR     -0.825300
      6 O1B        -0.4620   -1.4480   -0.2930 o         1 CNR     -0.825300
      7 H2          2.0020   -1.2850    0.0530 h1        1 CNR      0.048700
      8 H31         3.1300    0.5950    1.3850 hc        1 CNR      0.029700
      9 H32         1.5270    1.4610    1.4170 hc        1 CNR      0.029700
     10 H33         1.7110   -0.1370    2.2490 hc        1 CNR      0.029700
@<TRIPOS>BOND
     1    1    2 1   
     2    1    5 1   
     3    1    6 1   
     4    2    3 1   
     5    2    4 1   
     6    2    7 1   
     7    3    8 1   
     8    3    9 1   
     9    3   10 1   
@<TRIPOS>SUBSTRUCTURE
     1 CNR         1 TEMP              0 ****  ****    0 ROOT
