@<TRIPOS>MOLECULE
molecule
   10     9     1     0     0
SMALL
bcc


@<TRIPOS>ATOM
      1 C1           0.0000     0.0000     0.0000 c          1 CNR       0.888600
      2 C2           1.5120     0.0000     0.0000 c3         1 CNR      -0.014300
      3 C3           2.1150     0.0000     1.3970 c3         1 CNR      -0.075100
      4 Cl           2.0840     1.4480    -0.8790 cl         1 CNR      -0.281400
      5 O1A         -0.7190     0.8890    -0.4360 o          1 CNR      -0.832300
      6 O1B         -0.4990    -1.1300     0.5700 o          1 CNR      -0.832300
      7 H2           1.8570    -0.8820    -0.5250 h1         1 CNR       0.055700
      8 H31          1.9310    -0.9570     1.8700 hc         1 CNR       0.030700
      9 H32          3.1830     0.1690     1.3290 hc         1 CNR       0.030700
     10 H33          1.6620     0.7880     1.9860 hc         1 CNR       0.030700
@<TRIPOS>BOND
     1     1     2 1
     2     1     5 1
     3     1     6 1
     4     2     3 1
     5     2     4 1
     6     2     7 1
     7     3     8 1
     8     3     9 1
     9     3    10 1
@<TRIPOS>SUBSTRUCTURE
     1 CNR         1 TEMP              0 ****  ****    0 ROOT
