@<TRIPOS>MOLECULE
CNS
   74    73     1     0     0
SMALL
bcc


@<TRIPOS>ATOM
      1 C24        -0.0990    0.0020    0.2630 c3        1 CNS     -0.092100
      2 C23         1.4070    0.0030    0.2360 c3        1 CNS     -0.080400
      3 C22         1.9880   -0.0020    1.6350 c3        1 CNS     -0.079400
      4 C21         3.5010   -0.0000    1.6030 c3        1 CNS     -0.079400
      5 C20         4.0800   -0.0040    3.0020 c3        1 CNS     -0.079400
      6 C19         5.5930   -0.0020    2.9700 c3        1 CNS     -0.079400
      7 C18         6.1720   -0.0060    4.3690 c3        1 CNS     -0.079400
      8 C17         7.6860   -0.0030    4.3370 c3        1 CNS     -0.079400
      9 C16         8.2650   -0.0070    5.7350 c3        1 CNS     -0.079400
     10 C15         9.7780   -0.0030    5.7030 c3        1 CNS     -0.079400
     11 C14        10.3570   -0.0060    7.1010 c3        1 CNS     -0.079400
     12 C13        11.8710   -0.0010    7.0690 c3        1 CNS     -0.079400
     13 C12        12.4500   -0.0040    8.4670 c3        1 CNS     -0.078400
     14 C11        13.9630    0.0020    8.4340 c3        1 CNS     -0.078400
     15 C10        14.5370   -0.0010    9.8330 c3        1 CNS     -0.085400
     16 C9         16.0530    0.0060    9.7760 c3        1 CNS      0.140400
     17 O2         16.5030    0.0030   11.1420 os        1 CNS     -0.447900
     18 C8         17.8580    0.0110   11.3390 c         1 CNS      0.631100
     19 C7         18.2200    0.0080   12.7910 c3        1 CNS     -0.127400
     20 C6         19.7210    0.0030   12.9840 c3        1 CNS     -0.078400
     21 O1         18.5910    0.0200   10.3490 o         1 CNS     -0.543000
     22 C3         21.9310   -0.0030   16.1270 c3        1 CNS     -0.079400
     23 C4         21.5740   -0.0020   14.6560 c3        1 CNS     -0.079400
     24 C5         20.0730    0.0030   14.4560 c3        1 CNS     -0.079400
     25 C2         23.4320   -0.0070   16.3280 c3        1 CNS     -0.080400
     26 C1         23.7930   -0.0080   17.7910 c3        1 CNS     -0.093100
     27 H241       -0.4840   -0.9050    0.7890 hc        1 CNS      0.032700
     28 H242       -0.4850    0.9050    0.7950 hc        1 CNS      0.032700
     29 H243       -0.5060    0.0050   -0.7770 hc        1 CNS      0.032700
     30 H231        1.7740    0.9070   -0.3170 hc        1 CNS      0.038700
     31 H232        1.7750   -0.8980   -0.3230 hc        1 CNS      0.038700
     32 H221        1.6220    0.8990    2.1960 hc        1 CNS      0.039700
     33 H222        1.6230   -0.9060    2.1900 hc        1 CNS      0.039700
     34 H211        3.8660   -0.9010    1.0420 hc        1 CNS      0.039700
     35 H212        3.8650    0.9040    1.0480 hc        1 CNS      0.039700
     36 H201        3.7140    0.8960    3.5630 hc        1 CNS      0.039700
     37 H202        3.7170   -0.9090    3.5570 hc        1 CNS      0.039700
     38 H191        5.9590   -0.9020    2.4090 hc        1 CNS      0.039700
     39 H192        5.9560    0.9030    2.4150 hc        1 CNS      0.039700
     40 H181        5.8100   -0.9110    4.9230 hc        1 CNS      0.039700
     41 H182        5.8060    0.8940    4.9300 hc        1 CNS      0.039700
     42 H171        8.0480    0.9020    3.7820 hc        1 CNS      0.039700
     43 H172        8.0520   -0.9030    3.7760 hc        1 CNS      0.039700
     44 H161        7.9030   -0.9120    6.2900 hc        1 CNS      0.039700
     45 H162        7.8980    0.8930    6.2960 hc        1 CNS      0.039700
     46 H151       10.1400    0.9030    5.1480 hc        1 CNS      0.039700
     47 H152       10.1450   -0.9030    5.1420 hc        1 CNS      0.039700
     48 H141        9.9960   -0.9120    7.6560 hc        1 CNS      0.039700
     49 H142        9.9900    0.8930    7.6620 hc        1 CNS      0.039700
     50 H131       12.2380   -0.9010    6.5080 hc        1 CNS      0.040700
     51 H132       12.2320    0.9050    6.5140 hc        1 CNS      0.040700
     52 H121       12.0820    0.8950    9.0290 hc        1 CNS      0.041700
     53 H122       12.0890   -0.9100    9.0220 hc        1 CNS      0.041700
     54 H111       14.3310   -0.8980    7.8730 hc        1 CNS      0.042700
     55 H112       14.3240    0.9080    7.8790 hc        1 CNS      0.042700
     56 H101       14.1810    0.8980   10.4010 hc        1 CNS      0.053700
     57 H102       14.1890   -0.9070   10.3940 hc        1 CNS      0.053700
     58 H91        16.4570   -0.9030    9.2600 h1        1 CNS      0.051700
     59 H92        16.4480    0.9230    9.2670 h1        1 CNS      0.051700
     60 H71        17.7630    0.9150   13.2710 hc        1 CNS      0.078700
     61 H72        17.7570   -0.8960   13.2700 hc        1 CNS      0.078700
     62 H61        20.1660    0.9020   12.4820 hc        1 CNS      0.057700
     63 H62        20.1600   -0.9000   12.4840 hc        1 CNS      0.057700
     64 H31        21.4890    0.9010   16.6220 hc        1 CNS      0.039700
     65 H32        21.4830   -0.9040   16.6230 hc        1 CNS      0.039700
     66 H41        22.0160   -0.9060   14.1600 hc        1 CNS      0.042700
     67 H42        22.0220    0.8990   14.1590 hc        1 CNS      0.042700
     68 H51        19.6310    0.9080   14.9510 hc        1 CNS      0.039700
     69 H52        19.6250   -0.8980   14.9520 hc        1 CNS      0.039700
     70 H21        23.8780    0.8940   15.8300 hc        1 CNS      0.039700
     71 H22        23.8730   -0.9110   15.8300 hc        1 CNS      0.039700
     72 H11        23.3830    0.8980   18.2990 hc        1 CNS      0.033033
     73 H12        24.9020   -0.0120   17.9170 hc        1 CNS      0.033033
     74 H13        23.3780   -0.9120   18.2990 hc        1 CNS      0.033033
@<TRIPOS>BOND
     1    1    2 1   
     2    1   27 1   
     3    1   28 1   
     4    1   29 1   
     5    2    3 1   
     6    2   30 1   
     7    2   31 1   
     8    3    4 1   
     9    3   32 1   
    10    3   33 1   
    11    4    5 1   
    12    4   34 1   
    13    4   35 1   
    14    5    6 1   
    15    5   36 1   
    16    5   37 1   
    17    6    7 1   
    18    6   38 1   
    19    6   39 1   
    20    7    8 1   
    21    7   40 1   
    22    7   41 1   
    23    8    9 1   
    24    8   42 1   
    25    8   43 1   
    26    9   10 1   
    27    9   44 1   
    28    9   45 1   
    29   10   11 1   
    30   10   46 1   
    31   10   47 1   
    32   11   12 1   
    33   11   48 1   
    34   11   49 1   
    35   12   13 1   
    36   12   50 1   
    37   12   51 1   
    38   13   14 1   
    39   13   52 1   
    40   13   53 1   
    41   14   15 1   
    42   14   54 1   
    43   14   55 1   
    44   15   16 1   
    45   15   56 1   
    46   15   57 1   
    47   16   17 1   
    48   16   58 1   
    49   16   59 1   
    50   17   18 1   
    51   18   19 1   
    52   18   21 2   
    53   19   20 1   
    54   19   60 1   
    55   19   61 1   
    56   20   24 1   
    57   20   62 1   
    58   20   63 1   
    59   22   23 1   
    60   22   25 1   
    61   22   64 1   
    62   22   65 1   
    63   23   24 1   
    64   23   66 1   
    65   23   67 1   
    66   24   68 1   
    67   24   69 1   
    68   25   26 1   
    69   25   70 1   
    70   25   71 1   
    71   26   72 1   
    72   26   73 1   
    73   26   74 1   
@<TRIPOS>SUBSTRUCTURE
     1 CNS         1 TEMP              0 ****  ****    0 ROOT
