@<TRIPOS>MOLECULE
molecule
   74    73     1     0     0
SMALL
bcc


@<TRIPOS>ATOM
      1 C24          0.0000     0.0000     0.0000 c3         1 CNS      -0.092100
      2 C23          1.5300     0.0000     0.0000 c3         1 CNS      -0.084400
      3 C22          2.0400     0.0000     1.4410 c3         1 CNS      -0.081400
      4 C21          3.5700    -0.0000     1.4410 c3         1 CNS      -0.082400
      5 C20          4.0820    -0.0000     2.8820 c3         1 CNS      -0.082400
      6 C19          5.6120    -0.0000     2.8820 c3         1 CNS      -0.081400
      7 C18          6.1220    -0.0010     4.3240 c3         1 CNS      -0.082400
      8 C17          7.6520    -0.0000     4.3240 c3         1 CNS      -0.082400
      9 C16          8.1630    -0.0010     5.7660 c3         1 CNS      -0.081400
     10 C15          9.6920    -0.0010     5.7650 c3         1 CNS      -0.082400
     11 C14         10.2040    -0.0010     7.2060 c3         1 CNS      -0.081400
     12 C13         11.7340    -0.0010     7.2060 c3         1 CNS      -0.081400
     13 C12         12.2450    -0.0010     8.6480 c3         1 CNS      -0.079400
     14 C11         13.7730    -0.0010     8.6470 c3         1 CNS      -0.080400
     15 C10         14.2850    -0.0010    10.0890 c3         1 CNS      -0.085400
     16 C9          15.8140    -0.0010    10.0890 c3         1 CNS       0.155400
     17 O2          16.3000    -0.0020    11.4570 os         1 CNS      -0.444900
     18 C8          17.6190    -0.0010    11.7020 c          1 CNS       0.635100
     19 C7          18.1230    -0.0020    13.1210 c3         1 CNS      -0.125400
     20 C6          19.6530    -0.0020    13.1210 c3         1 CNS      -0.072400
     21 O1          18.4040    -0.0020    10.7830 o          1 CNS      -0.553000
     22 C3          22.2050    -0.0020    16.0040 c3         1 CNS      -0.082400
     23 C4          21.6930    -0.0020    14.5630 c3         1 CNS      -0.080400
     24 C5          20.1630    -0.0020    14.5630 c3         1 CNS      -0.084400
     25 C2          23.7350    -0.0020    16.0040 c3         1 CNS      -0.083400
     26 C1          24.2450    -0.0020    17.4450 c3         1 CNS      -0.092100
     27 H241        -0.3610     0.0000    -1.0210 hc         1 CNS       0.032367
     28 H242        -0.3610    -0.8850     0.5110 hc         1 CNS       0.032367
     29 H243        -0.3610     0.8840     0.5110 hc         1 CNS       0.032367
     30 H231         1.8910    -0.8840    -0.5110 hc         1 CNS       0.039700
     31 H232         1.8910     0.8840    -0.5110 hc         1 CNS       0.039700
     32 H221         1.6790    -0.8840     1.9520 hc         1 CNS       0.040700
     33 H222         1.6790     0.8840     1.9520 hc         1 CNS       0.040700
     34 H211         3.9310    -0.8840     0.9300 hc         1 CNS       0.040700
     35 H212         3.9310     0.8840     0.9300 hc         1 CNS       0.040700
     36 H201         3.7210    -0.8840     3.3940 hc         1 CNS       0.040700
     37 H202         3.7210     0.8840     3.3940 hc         1 CNS       0.040700
     38 H191         5.9730     0.8850     2.3720 hc         1 CNS       0.040700
     39 H192         5.9730    -0.8840     2.3710 hc         1 CNS       0.040700
     40 H181         5.7620    -0.8860     4.8340 hc         1 CNS       0.040700
     41 H182         5.7610     0.8830     4.8350 hc         1 CNS       0.040700
     42 H171         8.0120     0.8850     3.8140 hc         1 CNS       0.040700
     43 H172         8.0130    -0.8840     3.8120 hc         1 CNS       0.040700
     44 H161         7.8030     0.8830     6.2770 hc         1 CNS       0.040700
     45 H162         7.8030    -0.8860     6.2760 hc         1 CNS       0.040700
     46 H151        10.0530     0.8830     5.2540 hc         1 CNS       0.041700
     47 H152        10.0530    -0.8850     5.2540 hc         1 CNS       0.041700
     48 H141         9.8430     0.8830     7.7170 hc         1 CNS       0.041700
     49 H142         9.8430    -0.8850     7.7170 hc         1 CNS       0.041700
     50 H131        12.0950    -0.8850     6.6950 hc         1 CNS       0.041700
     51 H132        12.0950     0.8830     6.6950 hc         1 CNS       0.041700
     52 H121        11.8850     0.8830     9.1590 hc         1 CNS       0.043700
     53 H122        11.8850    -0.8860     9.1590 hc         1 CNS       0.043700
     54 H111        14.1340     0.8830     8.1360 hc         1 CNS       0.044700
     55 H112        14.1340    -0.8860     8.1360 hc         1 CNS       0.044700
     56 H101        13.9240    -0.8850    10.6000 hc         1 CNS       0.053700
     57 H102        13.9240     0.8830    10.6000 hc         1 CNS       0.053700
     58 H91         16.1750     0.8840     9.5780 h1         1 CNS       0.047700
     59 H92         16.1750    -0.8850     9.5770 h1         1 CNS       0.047700
     60 H71         17.7620     0.8820    13.6330 hc         1 CNS       0.070700
     61 H72         17.7620    -0.8860    13.6320 hc         1 CNS       0.070700
     62 H61         20.0140     0.8830    12.6110 hc         1 CNS       0.058700
     63 H62         20.0140    -0.8860    12.6110 hc         1 CNS       0.058700
     64 H31         21.8440     0.8830    16.5150 hc         1 CNS       0.040700
     65 H32         21.8440    -0.8860    16.5150 hc         1 CNS       0.040700
     66 H41         22.0540    -0.8860    14.0520 hc         1 CNS       0.043700
     67 H42         22.0540     0.8830    14.0520 hc         1 CNS       0.043700
     68 H51         19.8020     0.8830    15.0740 hc         1 CNS       0.040700
     69 H52         19.8020    -0.8860    15.0740 hc         1 CNS       0.040700
     70 H21         24.0960     0.8830    15.4930 hc         1 CNS       0.040700
     71 H22         24.0960    -0.8860    15.4930 hc         1 CNS       0.040700
     72 H11         23.8850    -0.8860    17.9560 hc         1 CNS       0.032700
     73 H12         23.8850     0.8830    17.9560 hc         1 CNS       0.032700
     74 H13         25.3290    -0.0020    17.4440 hc         1 CNS       0.032700
@<TRIPOS>BOND
     1     1     2 1
     2     1    27 1
     3     1    28 1
     4     1    29 1
     5     2     3 1
     6     2    30 1
     7     2    31 1
     8     3     4 1
     9     3    32 1
    10     3    33 1
    11     4     5 1
    12     4    34 1
    13     4    35 1
    14     5     6 1
    15     5    36 1
    16     5    37 1
    17     6     7 1
    18     6    38 1
    19     6    39 1
    20     7     8 1
    21     7    40 1
    22     7    41 1
    23     8     9 1
    24     8    42 1
    25     8    43 1
    26     9    10 1
    27     9    44 1
    28     9    45 1
    29    10    11 1
    30    10    46 1
    31    10    47 1
    32    11    12 1
    33    11    48 1
    34    11    49 1
    35    12    13 1
    36    12    50 1
    37    12    51 1
    38    13    14 1
    39    13    52 1
    40    13    53 1
    41    14    15 1
    42    14    54 1
    43    14    55 1
    44    15    16 1
    45    15    56 1
    46    15    57 1
    47    16    17 1
    48    16    58 1
    49    16    59 1
    50    17    18 1
    51    18    19 1
    52    18    21 2
    53    19    20 1
    54    19    60 1
    55    19    61 1
    56    20    24 1
    57    20    62 1
    58    20    63 1
    59    22    23 1
    60    22    25 1
    61    22    64 1
    62    22    65 1
    63    23    24 1
    64    23    66 1
    65    23    67 1
    66    24    68 1
    67    24    69 1
    68    25    26 1
    69    25    70 1
    70    25    71 1
    71    26    72 1
    72    26    73 1
    73    26    74 1
@<TRIPOS>SUBSTRUCTURE
     1 CNS         1 TEMP              0 ****  ****    0 ROOT
