@<TRIPOS>MOLECULE
CNT
   26    26     1     0     0
SMALL
bcc


@<TRIPOS>ATOM
      1 N            0.0000     0.0000     0.0000 n7         1 CNT      -0.552200
      2 CM          -0.5370     0.0780    -1.3580 c3         1 CNT       0.172100
      3 CA           1.4410     0.0000     0.0000 c3         1 CNT       0.007500
      4 CB           1.9940     0.0000     1.4310 c3         1 CNT       0.044900
      5 CG           3.4100     0.5160     1.5150 ca         1 CNT      -0.039300
      6 CD2          4.4660    -0.3730     1.3910 ca         1 CNT      -0.008000
      7 CE2          5.7750     0.1040     1.4700 ca         1 CNT      -0.067600
      8 Cl           7.0820    -1.0080     1.3120 cl         1 CNT      -0.040400
      9 CZ           6.0090     1.4650     1.6730 ca         1 CNT       0.099100
     10 OH           7.2770     1.9590     1.7540 oh         1 CNT      -0.509100
     11 CD1          4.9370     2.3460     1.7960 ca         1 CNT      -0.172000
     12 CE1          3.6280     1.8700     1.7160 ca         1 CNT      -0.089000
     13 C            1.9890    -1.1940    -0.7700 c          1 CNT       0.977600
     14 O            1.4390    -2.2890    -0.7830 o          1 CNT      -0.887800
     15 OXT          3.1350    -0.9520    -1.4520 o          1 CNT      -0.887800
     16 H           -0.3340     0.7770     0.5360 hn         1 CNT       0.208800
     17 HMC1         0.0830     0.7370    -1.9540 h1         1 CNT      -0.004300
     18 HMC2        -1.5480     0.4660    -1.3250 h1         1 CNT      -0.004300
     19 HMC3        -0.5430    -0.9100    -1.8010 h1         1 CNT      -0.004300
     20 HA           1.7790     0.9040    -0.4930 h1         1 CNT       0.007700
     21 HBC1         1.9690    -1.0130     1.8140 hc         1 CNT       0.008700
     22 HBC2         1.3590     0.6230     2.0490 hc         1 CNT       0.008700
     23 HD2          4.2780    -1.4400     1.3890 ha         1 CNT       0.135000
     24 HH           7.5680     2.2210     0.8970 ho         1 CNT       0.397000
     25 HD1          5.1200     3.4010     1.9610 ha         1 CNT       0.100000
     26 HE1          2.9780     2.7010     1.9600 ha         1 CNT       0.099000
@<TRIPOS>BOND
     1     1     2 1   
     2     1     3 1   
     3     1    16 1   
     4     2    17 1   
     5     2    18 1   
     6     2    19 1   
     7     3     4 1   
     8     3    13 1   
     9     3    20 1   
    10     4     5 1   
    11     4    21 1   
    12     4    22 1   
    13     5     6 ar  
    14     5    12 ar  
    15     6     7 ar  
    16     6    23 1   
    17     7     8 1   
    18     7     9 ar  
    19     9    10 1   
    20     9    11 ar  
    21    10    24 1   
    22    11    12 ar  
    23    11    25 1   
    24    12    26 1   
    25    13    14 1   
    26    13    15 1   
@<TRIPOS>SUBSTRUCTURE
     1 CNT         1 TEMP              0 ****  ****    0 ROOT
