@<TRIPOS>MOLECULE
CNV
    9     8     1     0     0
SMALL
bcc


@<TRIPOS>ATOM
      1 NAB         -0.8690     0.0200     2.4580 n1         1 CNV      -0.388800
      2 CAC         -0.4910     0.0000     1.3880 c1         1 CNV       0.187700
      3 CAD          0.0000     0.0000     0.0000 c3         1 CNV       0.112700
      4 CAA          1.5300     0.0000     0.0000 c3         1 CNV       0.001900
      5 HAD         -0.3610    -0.8850    -0.5110 hc         1 CNV       0.026700
      6 HAA1         1.8910     0.8850     0.5090 hc         1 CNV       0.011033
      7 HAA2         1.8910    -0.8840     0.5120 hc         1 CNV       0.011033
      8 HAA3         1.8910    -0.0020    -1.0210 hc         1 CNV       0.011033
      9 HXT         -0.3610     0.8850    -0.5110 hc         1 CNV       0.026700
@<TRIPOS>BOND
     1     1     2 3   
     2     2     3 1   
     3     3     4 1   
     4     3     5 1   
     5     3     9 1   
     6     4     6 1   
     7     4     7 1   
     8     4     8 1   
@<TRIPOS>SUBSTRUCTURE
     1 CNV         1 TEMP              0 ****  ****    0 ROOT
