@<TRIPOS>MOLECULE
molecule
   36    37     1     0     0
SMALL
bcc


@<TRIPOS>ATOM
      1 NAX          0.0000     0.0000     0.0000 nz         1 CNW      -0.669400
      2 CBC          1.3470     0.0000     0.0000 c          1 CNW       0.539300
      3 OAD          1.9550     0.0000     1.0540 o          1 CNW      -0.466100
      4 CBF          2.0840    -0.0000    -1.2740 cc         1 CNW      -0.462400
      5 CAQ          3.4750    -0.0000    -1.3070 cd         1 CNW       0.181800
      6 CBG          1.3790    -0.0070    -2.5680 c          1 CNW       0.769800
      7 OAE          0.2590    -0.4740    -2.6690 o          1 CNW      -0.610500
      8 OBB          2.0150     0.5220    -3.6370 os         1 CNW      -0.282200
      9 CBI          3.3420     0.2710    -3.7330 ca         1 CNW       0.239100
     10 CAP          3.9570     0.2440    -4.9730 ca         1 CNW      -0.250000
     11 CBH          4.1070     0.0320    -2.5720 ca         1 CNW      -0.276800
     12 CAN          5.4910    -0.1820    -2.6800 ca         1 CNW       0.014000
     13 CAM          6.0830    -0.1960    -3.9070 ca         1 CNW      -0.229000
     14 CBE          5.3250     0.0140    -5.0610 ca         1 CNW       0.297600
     15 NBP          5.9400    -0.0180    -6.3050 nh         1 CNW      -0.668000
     16 CAS          7.3810    -0.2590    -6.4040 c3         1 CNW       0.212300
     17 CAB          7.6380    -1.7630    -6.5230 c3         1 CNW      -0.120600
     18 CAR          5.1470     0.1920    -7.5200 c3         1 CNW       0.212300
     19 CAA          5.1160     1.6830    -7.8580 c3         1 CNW      -0.120600
     20 HAX1        -0.3340     0.1140     0.9370 hn         1 CNW       0.479467
     21 HAX2        -0.3340     0.7540    -0.5670 hn         1 CNW       0.479467
     22 HAQ          4.0370     0.2430    -0.4130 ha         1 CNW       0.176000
     23 HAP          3.3750     0.4060    -5.8720 ha         1 CNW       0.174000
     24 HAN          6.0860    -0.3460    -1.7890 ha         1 CNW       0.155000
     25 HAM          7.1480    -0.3740    -3.9880 ha         1 CNW       0.163000
     26 HAS1         7.7730     0.2450    -7.2800 h1         1 CNW       0.066700
     27 HAS2         7.8730     0.1230    -5.5180 h1         1 CNW       0.066700
     28 HAR1         4.1370    -0.1630    -7.3580 h1         1 CNW       0.066700
     29 HAR2         5.5940    -0.3560    -8.3410 h1         1 CNW       0.066700
     30 HAB1         8.4490    -2.0440    -5.8610 hc         1 CNW       0.052700
     31 HAB2         7.9060    -2.0040    -7.5450 hc         1 CNW       0.052700
     32 HAB3         6.7420    -2.3060    -6.2470 hc         1 CNW       0.052700
     33 HAA1         5.7990     1.8830    -8.6740 hc         1 CNW       0.052700
     34 HAA2         4.1120     1.9660    -8.1510 hc         1 CNW       0.052700
     35 HAA3         5.4140     2.2570    -6.9890 hc         1 CNW       0.052700
     36 HAX3        -0.3340    -0.8640    -0.3790 hn         1 CNW       0.479467
@<TRIPOS>BOND
     1     1     2 1
     2     2     3 2
     3     2     4 1
     4     4     5 2
     5     4     6 1
     6     5    11 1
     7     6     7 2
     8     6     8 1
     9     8     9 1
    10     9    10 ar
    11     9    11 ar
    12    10    14 ar
    13    11    12 ar
    14    12    13 ar
    15    13    14 ar
    16    14    15 1
    17    15    16 1
    18    15    18 1
    19    16    17 1
    20    18    19 1
    21     1    20 1
    22     1    21 1
    23     5    22 1
    24    10    23 1
    25    12    24 1
    26    13    25 1
    27    16    26 1
    28    16    27 1
    29    18    28 1
    30    18    29 1
    31    17    30 1
    32    17    31 1
    33    17    32 1
    34    19    33 1
    35    19    34 1
    36    19    35 1
    37    36     1 1
@<TRIPOS>SUBSTRUCTURE
     1 CNW         1 TEMP              0 ****  ****    0 ROOT
