@<TRIPOS>MOLECULE
molecule
   21    20     1     0     0
SMALL
bcc


@<TRIPOS>ATOM
      1 N1          -0.8870     0.0030    -2.4530 n1         1 CNX      -0.369800
      2 C1          -0.4900     0.0000    -1.3880 c1         1 CNX       0.252700
      3 C2           0.0000     0.0000     0.0000 c3         1 CNX      -0.080300
      4 C3           1.5290     0.0000     0.0000 c3         1 CNX      -0.102400
      5 C4           2.0400     0.0000     1.4430 c3         1 CNX      -0.108400
      6 C5           3.5700    -0.0000     1.4420 c3         1 CNX      -0.122400
      7 C6           4.0800     0.0000     2.8850 c3         1 CNX      -0.055400
      8 C7           5.6100    -0.0000     2.8850 c3         1 CNX      -0.070100
      9 H2          -0.0560    -0.8250     0.7000 hc         1 CNX       0.080200
     10 H2A         -0.0960     0.8090     0.7140 hc         1 CNX       0.080200
     11 H3           1.6370     0.9420    -0.5250 hc         1 CNX       0.053700
     12 H3A          1.7340    -0.7910    -0.7120 hc         1 CNX       0.053700
     13 H4           1.6940     0.7200     2.1750 hc         1 CNX       0.031700
     14 H4A          1.6430    -0.9090     1.8790 hc         1 CNX       0.031700
     15 H5           3.6060     0.8310     0.7480 hc         1 CNX       0.053200
     16 H5A          3.4760    -0.7660     0.6820 hc         1 CNX       0.053200
     17 H6           3.5580     0.8620     3.2830 hc         1 CNX       0.038200
     18 H6A          3.4120    -0.6850     3.3930 hc         1 CNX       0.038200
     19 H7           5.5930     0.0450     3.9670 hc         1 CNX       0.047367
     20 H7A          5.8560    -1.0490     2.7720 hc         1 CNX       0.047367
     21 H7B          6.1400     0.7990     2.3810 hc         1 CNX       0.047367
@<TRIPOS>BOND
     1     1     2 3
     2     2     3 1
     3     3     4 1
     4     4     5 1
     5     5     6 1
     6     6     7 1
     7     7     8 1
     8     3     9 1
     9     3    10 1
    10     4    11 1
    11     4    12 1
    12     5    13 1
    13     5    14 1
    14     6    15 1
    15     6    16 1
    16     7    17 1
    17     7    18 1
    18     8    19 1
    19     8    20 1
    20     8    21 1
@<TRIPOS>SUBSTRUCTURE
     1 CNX         1 TEMP              0 ****  ****    0 ROOT
