@<TRIPOS>MOLECULE
molecule
   61    62     1     0     0
SMALL
bcc


@<TRIPOS>ATOM
      1 N1           0.0000     0.0000     0.0000 nz         1 CNZ      -0.791600
      2 CA1          1.4690     0.0000     0.0000 c3         1 CNZ      -0.022500
      3 C1           1.9720     0.0000     1.4200 c          1 CNZ       0.873600
      4 O11          3.2250    -0.3970     1.6890 o          1 CNZ      -0.781800
      5 CB1          1.9790     1.2490    -0.7210 c3         1 CNZ      -0.073400
      6 CG1          1.5750     1.1880    -2.1960 c3         1 CNZ      -0.177400
      7 CD1          2.0770     2.4190    -2.9060 c          1 CNZ       0.672100
      8 OE1          2.6980     3.2620    -2.2940 o          1 CNZ      -0.586100
      9 O12          1.2450     0.3580     2.3180 o          1 CNZ      -0.781800
     10 N2           1.8370     2.5820    -4.2220 ns         1 CNZ      -0.556900
     11 CA2          2.3250     3.7790    -4.9130 c3         1 CNZ       0.056700
     12 C2           1.3330     4.9000    -4.7400 c          1 CNZ       0.631100
     13 O2           0.3170     4.7170    -4.1020 o          1 CNZ      -0.639100
     14 CB2          2.4960     3.4740    -6.4020 c3         1 CNZ      -0.011300
     15 SG2          3.6900     2.1250    -6.6120 ss         1 CNZ      -0.289200
     16 CZ4          6.7610    -2.9710   -14.2090 ca         1 CNZ      -0.121000
     17 CE4          6.9910    -3.4190   -15.4940 ca         1 CNZ      -0.126500
     18 CD4          6.3670    -2.8040   -16.5650 ca         1 CNZ      -0.136000
     19 CG4          5.5110    -1.7390   -16.3560 ca         1 CNZ      -0.126500
     20 CB4          5.2740    -1.2820   -15.0760 ca         1 CNZ      -0.121000
     21 CH4          5.8990    -1.8970   -13.9920 cp         1 CNZ      -0.029000
     22 CH5          5.3900    -0.2510   -12.8020 cp         1 CNZ       0.000000
     23 CB5          6.0660    -0.9250   -11.7850 ca         1 CNZ      -0.142500
     24 CG5          5.8520    -0.5850   -10.4740 ca         1 CNZ      -0.078000
     25 CD5          4.9550     0.4420   -10.1570 ca         1 CNZ      -0.185600
     26 CE5          4.2770     1.1180   -11.1780 ca         1 CNZ      -0.078000
     27 CZ5          4.4980     0.7770   -12.4880 ca         1 CNZ      -0.142500
     28 O5           5.3090     0.2220    -7.8670 o          1 CNZ      -0.501100
     29 N3           1.5740     6.1040    -5.2930 ns         1 CNZ      -0.540900
     30 CA3          0.6090     7.1930    -5.1240 c3         1 CNZ      -0.006000
     31 C3           1.1110     8.4240    -5.8350 c          1 CNZ       0.883600
     32 C13          3.7560     1.9130    -8.4120 c3         1 CNZ      -0.102300
     33 O31          2.1670     8.3940    -6.4210 o          1 CNZ      -0.842300
     34 C14          4.7230     0.8090    -8.7520 c          1 CNZ       0.589700
     35 O32          0.3850     9.5530    -5.8160 o          1 CNZ      -0.842300
     36 H12N        -0.3340     0.9100     0.2500 hn         1 CNZ       0.437800
     37 H11N        -0.3340    -0.2390    -0.9130 hn         1 CNZ       0.437800
     38 H1          -0.3340    -0.6710     0.6630 hn         1 CNZ       0.437800
     39 HA1          1.8310    -0.8840    -0.5110 hx         1 CNZ       0.097700
     40 HB11         1.5460     2.1310    -0.2650 hc         1 CNZ       0.103700
     41 HB12         3.0580     1.2960    -0.6440 hc         1 CNZ       0.103700
     42 HG12         0.4950     1.1420    -2.2730 hc         1 CNZ       0.043700
     43 HG11         2.0070     0.3060    -2.6520 hc         1 CNZ       0.043700
     44 H2           1.3190     1.8900    -4.7270 hn         1 CNZ       0.313500
     45 HA2          3.2800     4.0740    -4.4930 h1         1 CNZ       0.108700
     46 HB22         2.8570     4.3580    -6.9120 h1         1 CNZ       0.075200
     47 HB21         1.5410     3.1790    -6.8210 h1         1 CNZ       0.075200
     48 HD4          6.5500    -3.1590   -17.5720 ha         1 CNZ       0.129000
     49 HG4          5.0260    -1.2620   -17.1990 ha         1 CNZ       0.133000
     50 HB4          4.6020    -0.4470   -14.9130 ha         1 CNZ       0.137500
     51 HB5          6.5180    -1.8900   -11.9830 ha         1 CNZ       0.141500
     52 HG5          6.3780    -1.1090    -9.6850 ha         1 CNZ       0.150500
     53 HE5          3.5840     1.9130   -10.9340 ha         1 CNZ       0.150500
     54 HZ5          3.5830     0.8910   -13.0560 ha         1 CNZ       0.141500
     55 H3           2.4360     6.2700    -5.7740 hn         1 CNZ       0.333500
     56 HA31         0.4890     7.4090    -4.0690 h1         1 CNZ       0.048200
     57 HA32        -0.3460     6.8990    -5.5430 h1         1 CNZ       0.048200
     58 H132         2.7710     1.6570    -8.7810 h1         1 CNZ       0.080700
     59 H131         4.0860     2.8360    -8.8720 h1         1 CNZ       0.080700
     60 HZ4          7.2500    -3.4520   -13.3710 ha         1 CNZ       0.137500
     61 HE4          7.6610    -4.2530   -15.6640 ha         1 CNZ       0.133000
@<TRIPOS>BOND
     1     9     3 1
     2     1     2 1
     3     3     4 1
     4     3     2 1
     5     2     5 1
     6     5     6 1
     7     6     7 1
     8     7     8 2
     9     7    10 1
    10    10    11 1
    11    11    12 1
    12    11    14 1
    13    33    31 1
    14    13    12 2
    15    12    29 1
    16    14    15 1
    17    31    30 1
    18    31    35 1
    19    29    30 1
    20    23    24 ar
    21    23    22 ar
    22    24    25 ar
    23    32    15 1
    24    32    34 1
    25    16    17 ar
    26    16    21 ar
    27    17    18 ar
    28    21    22 1
    29    21    20 ar
    30    22    27 ar
    31    18    19 ar
    32    20    19 ar
    33    25    34 1
    34    25    26 ar
    35    34    28 2
    36    27    26 ar
    37     1    36 1
    38     1    37 1
    39     1    38 1
    40     2    39 1
    41     5    40 1
    42     5    41 1
    43     6    42 1
    44     6    43 1
    45    10    44 1
    46    11    45 1
    47    14    46 1
    48    14    47 1
    49    16    60 1
    50    17    61 1
    51    18    48 1
    52    19    49 1
    53    20    50 1
    54    23    51 1
    55    24    52 1
    56    26    53 1
    57    27    54 1
    58    29    55 1
    59    30    56 1
    60    30    57 1
    61    32    58 1
    62    32    59 1
@<TRIPOS>SUBSTRUCTURE
     1 CNZ         1 TEMP              0 ****  ****    0 ROOT
