@<TRIPOS>MOLECULE
CO1
   73    77     1     0     0
SMALL
bcc


@<TRIPOS>ATOM
      1 O24         0.2480   -0.6760   -0.6320 oh        1 CO1     -0.600800
      2 C22         1.6450   -0.4700   -0.4550 c3        1 CO1      0.145100
      3 C18         2.0240   -0.5670    1.0210 c3        1 CO1     -0.075200
      4 C14         3.4330   -0.1470    1.2640 c2        1 CO1     -0.105400
      5 C9          4.2410   -0.9140    2.0120 c2        1 CO1     -0.167200
      6 C4          5.6440   -0.5850    2.3370 c3        1 CO1     -0.042200
      7 C1          5.9720    0.8770    2.0690 c3        1 CO1     -0.047700
      8 C3          5.4040    1.3000    0.7070 c3        1 CO1     -0.048700
      9 C8          5.8710    2.6910    0.2950 c3        1 CO1     -0.075400
     10 C11         7.3730    2.9020    0.4010 c3        1 CO1     -0.065400
     11 C5          7.8690    2.5580    1.7980 c3        1 CO1     -0.045000
     12 C12         7.2740    3.5010    2.8290 c3        1 CO1     -0.083100
     13 C10         9.4060    2.4790    1.9760 c3        1 CO1     -0.054700
     14 C13         9.5890    1.4700    3.1300 c3        1 CO1     -0.079400
     15 C6          8.2870    0.6770    3.2650 c3        1 CO1     -0.074400
     16 C2          7.4730    1.0800    2.0460 c3        1 CO1     -0.064700
     17 C17        10.1390    3.7890    2.2390 c3        1 CO1     -0.055700
     18 C21         9.9300    4.7840    1.1130 c3        1 CO1     -0.092100
     19 C20        11.6350    3.5280    2.4140 c3        1 CO1     -0.078400
     20 C23        12.3120    4.6370    3.1940 c3        1 CO1     -0.076400
     21 C25        13.7800    4.3710    3.3560 cx        1 CO1      0.069100
     22 O27        14.2500    4.1870    4.7020 os        1 CO1     -0.405600
     23 C26        14.6970    5.3660    3.9980 cx        1 CO1      0.073800
     24 C28        16.1500    5.3740    3.6360 c3        1 CO1     -0.082600
     25 C29        14.1790    6.6660    4.5280 c3        1 CO1     -0.082600
     26 C7          3.8630    1.1730    0.6720 c3        1 CO1      0.000200
     27 C16         3.1990    2.3030    1.4540 c3        1 CO1     -0.083100
     28 C15         3.4190    1.2400   -0.7980 c3        1 CO1     -0.070400
     29 C19         1.9560    0.9190   -0.9970 c3        1 CO1     -0.075400
     30 H24         0.0430   -1.5340   -0.2430 ho        1 CO1      0.398000
     31 H22         2.2090   -1.2480   -1.0440 h1        1 CO1      0.035700
     32 H181        1.3310    0.0890    1.6160 hc        1 CO1      0.051200
     33 H182        1.8610   -1.6210    1.3710 hc        1 CO1      0.051200
     34 H9          3.8810   -1.8720    2.4250 ha        1 CO1      0.119000
     35 H41         5.8510   -0.8140    3.4170 hc        1 CO1      0.049200
     36 H42         6.3200   -1.2460    1.7270 hc        1 CO1      0.049200
     37 H1          5.5110    1.5000    2.8820 hc        1 CO1      0.058700
     38 H3          5.8110    0.5700   -0.0530 hc        1 CO1      0.047700
     39 H81         5.3590    3.4660    0.9230 hc        1 CO1      0.041700
     40 H82         5.5670    2.8720   -0.7700 hc        1 CO1      0.041700
     41 H111        7.9020    2.2600   -0.3510 hc        1 CO1      0.041200
     42 H112        7.6060    3.9700    0.1550 hc        1 CO1      0.041200
     43 H121        7.5420    4.5580    2.5860 hc        1 CO1      0.035700
     44 H122        6.1600    3.4280    2.8550 hc        1 CO1      0.035700
     45 H123        7.6650    3.2570    3.8460 hc        1 CO1      0.035700
     46 H10         9.8340    2.0330    1.0350 hc        1 CO1      0.046700
     47 H131       10.4440    0.7840    2.9080 hc        1 CO1      0.043200
     48 H132        9.8180    2.0050    4.0850 hc        1 CO1      0.043200
     49 H61         7.7520    0.9460    4.2100 hc        1 CO1      0.042700
     50 H62         8.4760   -0.4230    3.2810 hc        1 CO1      0.042700
     51 H2          7.8700    0.4800    1.1730 hc        1 CO1      0.045700
     52 H17         9.7430    4.2350    3.1950 hc        1 CO1      0.051700
     53 H211       10.6730    5.6150    1.1820 hc        1 CO1      0.034033
     54 H212       10.0500    4.2860    0.1210 hc        1 CO1      0.034033
     55 H213        8.9090    5.2320    1.1650 hc        1 CO1      0.034033
     56 H201       11.7990    2.5610    2.9570 hc        1 CO1      0.045700
     57 H202       12.1130    3.4260    1.4040 hc        1 CO1      0.045700
     58 H231       11.8330    4.7330    4.2060 hc        1 CO1      0.055700
     59 H232       12.1830    5.6180    2.6650 hc        1 CO1      0.055700
     60 H25        14.2040    3.6410    2.6360 h1        1 CO1      0.085700
     61 H281       16.3290    6.1190    2.8240 hc        1 CO1      0.048367
     62 H282       16.7630    5.6550    4.5270 hc        1 CO1      0.048367
     63 H283       16.4780    4.3660    3.2860 hc        1 CO1      0.048367
     64 H291       14.2100    7.4370    3.7210 hc        1 CO1      0.048367
     65 H292       13.1280    6.5580    4.8900 hc        1 CO1      0.048367
     66 H293       14.8140    7.0100    5.3810 hc        1 CO1      0.048367
     67 H161        3.6900    2.4380    2.4470 hc        1 CO1      0.037367
     68 H162        3.2660    3.2630    0.8870 hc        1 CO1      0.037367
     69 H163        2.1170    2.0800    1.6230 hc        1 CO1      0.037367
     70 H151        4.0380    0.5220   -1.3980 hc        1 CO1      0.044700
     71 H152        3.6170    2.2710   -1.1920 hc        1 CO1      0.044700
     72 H191        1.7000    0.9560   -2.0870 hc        1 CO1      0.055200
     73 H192        1.3110    1.6730   -0.4740 hc        1 CO1      0.055200
@<TRIPOS>BOND
     1    1    2 1   
     2    1   30 1   
     3    2    3 1   
     4    2   29 1   
     5    2   31 1   
     6    3    4 1   
     7    3   32 1   
     8    3   33 1   
     9    4    5 2   
    10    4   26 1   
    11    5    6 1   
    12    5   34 1   
    13    6    7 1   
    14    6   35 1   
    15    6   36 1   
    16    7    8 1   
    17    7   16 1   
    18    7   37 1   
    19    8    9 1   
    20    8   26 1   
    21    8   38 1   
    22    9   10 1   
    23    9   39 1   
    24    9   40 1   
    25   10   11 1   
    26   10   41 1   
    27   10   42 1   
    28   11   12 1   
    29   11   13 1   
    30   11   16 1   
    31   12   43 1   
    32   12   44 1   
    33   12   45 1   
    34   13   14 1   
    35   13   17 1   
    36   13   46 1   
    37   14   15 1   
    38   14   47 1   
    39   14   48 1   
    40   15   16 1   
    41   15   49 1   
    42   15   50 1   
    43   16   51 1   
    44   17   18 1   
    45   17   19 1   
    46   17   52 1   
    47   18   53 1   
    48   18   54 1   
    49   18   55 1   
    50   19   20 1   
    51   19   56 1   
    52   19   57 1   
    53   20   21 1   
    54   20   58 1   
    55   20   59 1   
    56   21   22 1   
    57   21   23 1   
    58   21   60 1   
    59   22   23 1   
    60   23   24 1   
    61   23   25 1   
    62   24   61 1   
    63   24   62 1   
    64   24   63 1   
    65   25   64 1   
    66   25   65 1   
    67   25   66 1   
    68   26   27 1   
    69   26   28 1   
    70   27   67 1   
    71   27   68 1   
    72   27   69 1   
    73   28   29 1   
    74   28   70 1   
    75   28   71 1   
    76   29   72 1   
    77   29   73 1   
@<TRIPOS>SUBSTRUCTURE
     1 CO1         1 TEMP              0 ****  ****    0 ROOT
