@<TRIPOS>MOLECULE
molecule
   73    77     1     0     0
SMALL
bcc


@<TRIPOS>ATOM
      1 O24          0.0000     0.0000     0.0000 oh         1 CO1      -0.607800
      2 C22          1.4280     0.0000     0.0000 c3         1 CO1       0.149100
      3 C18          1.9390     0.0000     1.4440 c3         1 CO1      -0.051200
      4 C14          3.4530     0.1210     1.4160 c2         1 CO1      -0.112400
      5 C9           4.1530    -0.7410     2.0930 c2         1 CO1      -0.170200
      6 C4           5.6530    -0.7230     2.1350 c3         1 CO1      -0.038200
      7 C1           6.1480     0.7050     1.8840 c3         1 CO1      -0.058700
      8 C3           5.5700     1.2080     0.5550 c3         1 CO1      -0.051700
      9 C8           6.0970     2.5880     0.1730 c3         1 CO1      -0.079400
     10 C11          7.6330     2.6340     0.1800 c3         1 CO1      -0.063400
     11 C5           8.1230     2.1710     1.5510 c3         1 CO1      -0.063000
     12 C12          7.4680     3.0130     2.6470 c3         1 CO1      -0.097100
     13 C10          9.6300     2.0970     1.7800 c3         1 CO1      -0.052700
     14 C13          9.8380     0.9240     2.7710 c3         1 CO1      -0.081400
     15 C6           8.4360     0.3020     3.0140 c3         1 CO1      -0.077400
     16 C2           7.6600     0.7030     1.7560 c3         1 CO1      -0.068700
     17 C17         10.1390     3.4030     2.3900 c3         1 CO1      -0.070700
     18 C21          9.8630     4.5580     1.4250 c3         1 CO1      -0.097100
     19 C20         11.6440     3.2970     2.6410 c3         1 CO1      -0.077400
     20 C23         12.1540     4.6020     3.2510 c3         1 CO1      -0.068400
     21 C25         13.6590     4.4960     3.5020 cx         1 CO1       0.048100
     22 O27         14.1090     4.4820     4.8580 op         1 CO1      -0.378600
     23 C26         14.3620     5.6940     4.1420 cx         1 CO1       0.041800
     24 C28         15.8040     5.9860     3.7210 c3         1 CO1      -0.068600
     25 C29         13.5130     6.9180     4.4900 c3         1 CO1      -0.068600
     26 C7           4.0520     1.2350     0.6110 c3         1 CO1      -0.014800
     27 C16          3.6600     2.5610     1.2650 c3         1 CO1      -0.087100
     28 C15          3.4660     1.2110    -0.8030 c3         1 CO1      -0.066400
     29 C19          1.9380     1.2500    -0.7190 c3         1 CO1      -0.091400
     30 H24         -0.3140    -0.7920    -0.4030 ho         1 CO1       0.400000
     31 H22          1.7940    -0.8830    -0.5110 h1         1 CO1       0.032700
     32 H181         1.6570    -0.9270     1.9290 hc         1 CO1       0.057200
     33 H182         1.5160     0.8420     1.9790 hc         1 CO1       0.057200
     34 H9           3.6290    -1.5070     2.6520 ha         1 CO1       0.120000
     35 H41          6.0440    -1.3800     1.3680 hc         1 CO1       0.050200
     36 H42          5.9910    -1.0550     3.1100 hc         1 CO1       0.050200
     37 H1           5.8420     1.3550     2.6950 hc         1 CO1       0.069700
     38 H3           5.8630     0.5110    -0.2210 hc         1 CO1       0.048700
     39 H81          5.7420     2.8370    -0.8200 hc         1 CO1       0.045700
     40 H82          5.7200     3.3160     0.8810 hc         1 CO1       0.045700
     41 H111         8.0200     1.9730    -0.5860 hc         1 CO1       0.043700
     42 H112         7.9670     3.6480    -0.0030 hc         1 CO1       0.043700
     43 H121         7.5130     4.0600     2.3740 hc         1 CO1       0.040033
     44 H122         6.4330     2.7140     2.7620 hc         1 CO1       0.040033
     45 H123         7.9940     2.8600     3.5820 hc         1 CO1       0.040033
     46 H10         10.1380     1.8900     0.8460 hc         1 CO1       0.053700
     47 H131        10.5000     0.1850     2.3370 hc         1 CO1       0.045200
     48 H132        10.2450     1.2950     3.7040 hc         1 CO1       0.045200
     49 H61          7.9770     0.7290     3.8980 hc         1 CO1       0.045700
     50 H62          8.5050    -0.7760     3.0920 hc         1 CO1       0.045700
     51 H2           7.9670     0.0930     0.9150 hc         1 CO1       0.055700
     52 H17          9.6290     3.5860     3.3280 hc         1 CO1       0.059700
     53 H211         8.8870     4.9780     1.6350 hc         1 CO1       0.036700
     54 H212         9.8880     4.1910     0.4060 hc         1 CO1       0.036700
     55 H213        10.6200     5.3220     1.5520 hc         1 CO1       0.036700
     56 H201        11.8390     2.4790     3.3240 hc         1 CO1       0.046700
     57 H202        12.1540     3.1130     1.7030 hc         1 CO1       0.046700
     58 H231        11.9590     5.4200     2.5670 hc         1 CO1       0.056700
     59 H232        11.6440     4.7860     4.1880 hc         1 CO1       0.056700
     60 H25         14.2700     3.9240     2.8150 h1         1 CO1       0.089700
     61 H281        16.2850     6.5930     4.4770 hc         1 CO1       0.046033
     62 H282        15.8030     6.5170     2.7770 hc         1 CO1       0.046033
     63 H283        16.3430     5.0530     3.6100 hc         1 CO1       0.046033
     64 H291        13.1120     7.3490     3.5810 hc         1 CO1       0.046033
     65 H292        12.6980     6.6190     5.1380 hc         1 CO1       0.046033
     66 H293        14.1270     7.6510     4.9970 hc         1 CO1       0.046033
     67 H161         2.6210     2.5220     1.5670 hc         1 CO1       0.037367
     68 H162         4.2830     2.7330     2.1350 hc         1 CO1       0.037367
     69 H163         3.7990     3.3690     0.5560 hc         1 CO1       0.037367
     70 H151         3.8180     2.0740    -1.3540 hc         1 CO1       0.045200
     71 H152         3.7760     0.3020    -1.3060 hc         1 CO1       0.045200
     72 H191         1.6310     2.1310    -0.1680 hc         1 CO1       0.052200
     73 H192         1.5240     1.2820    -1.7200 hc         1 CO1       0.052200
@<TRIPOS>BOND
     1     1     2 1
     2     1    30 1
     3     2     3 1
     4     2    29 1
     5     2    31 1
     6     3     4 1
     7     3    32 1
     8     3    33 1
     9     4     5 2
    10     4    26 1
    11     5     6 1
    12     5    34 1
    13     6     7 1
    14     6    35 1
    15     6    36 1
    16     7     8 1
    17     7    16 1
    18     7    37 1
    19     8     9 1
    20     8    26 1
    21     8    38 1
    22     9    10 1
    23     9    39 1
    24     9    40 1
    25    10    11 1
    26    10    41 1
    27    10    42 1
    28    11    12 1
    29    11    13 1
    30    11    16 1
    31    12    43 1
    32    12    44 1
    33    12    45 1
    34    13    14 1
    35    13    17 1
    36    13    46 1
    37    14    15 1
    38    14    47 1
    39    14    48 1
    40    15    16 1
    41    15    49 1
    42    15    50 1
    43    16    51 1
    44    17    18 1
    45    17    19 1
    46    17    52 1
    47    18    53 1
    48    18    54 1
    49    18    55 1
    50    19    20 1
    51    19    56 1
    52    19    57 1
    53    20    21 1
    54    20    58 1
    55    20    59 1
    56    21    22 1
    57    21    23 1
    58    21    60 1
    59    22    23 1
    60    23    24 1
    61    23    25 1
    62    24    61 1
    63    24    62 1
    64    24    63 1
    65    25    64 1
    66    25    65 1
    67    25    66 1
    68    26    27 1
    69    26    28 1
    70    27    67 1
    71    27    68 1
    72    27    69 1
    73    28    29 1
    74    28    70 1
    75    28    71 1
    76    29    72 1
    77    29    73 1
@<TRIPOS>SUBSTRUCTURE
     1 CO1         1 TEMP              0 ****  ****    0 ROOT
