@<TRIPOS>MOLECULE
molecule
    3     2     1     0     0
SMALL
bcc


@<TRIPOS>ATOM
      1 C            0.0000     0.0000     0.0000 c1         1 CO2       0.880000
      2 O1           0.0000     0.0000    -1.2080 o          1 CO2      -0.440500
      3 O2           0.0000     0.0000     1.2080 o          1 CO2      -0.440500
@<TRIPOS>BOND
     1     1     2 2
     2     1     3 2
@<TRIPOS>SUBSTRUCTURE
     1 CO2         1 TEMP              0 ****  ****    0 ROOT
