@<TRIPOS>MOLECULE
CO9
   58    56     1     0     0
SMALL
bcc


@<TRIPOS>ATOM
      1 C1          3.9150    1.9520    5.6030 c2        1 CO9      0.034000
      2 N1          1.7910    2.6950    1.6200 n3        1 CO9     -0.426500
      3 O1          3.6750   -3.7830    5.2780 o         1 CO9     -0.399000
      4 C2          3.1540    1.5260    4.5800 c2        1 CO9     -0.150000
      5 N2          3.1330   -1.0040    4.8440 n2        1 CO9     -0.144000
      6 C3          3.0140    0.1450    4.1760 c2        1 CO9      0.072000
      7 N3          2.2010   -4.4280    3.6630 n         1 CO9     -0.277000
      8 C4          2.8420   -2.0310    3.9160 c2        1 CO9     -0.176000
      9 N4          3.8270   -2.0320    7.8880 n3        1 CO9     -0.426500
     10 C5          2.9350   -3.4520    4.3240 c2        1 CO9      0.416000
     11 N5          6.2020   -1.5180    6.2100 n3        1 CO9     -0.051000
     12 O5          2.6550   -0.0740    2.8220 os        1 CO9     -0.100000
     13 C6          1.1670   -4.1540    2.6880 c3        1 CO9     -0.028000
     14 C7          1.5720   -4.3790    1.2380 c3        1 CO9     -0.242000
     15 C8          1.4900   -6.6640    4.3300 c2        1 CO9     -0.162000
     16 C9          2.4580   -5.7950    3.9720 c2        1 CO9     -0.062000
     17 C10         3.8640   -6.2940    3.9120 c2        1 CO9      0.234000
     18 C11         5.9570    0.2310    8.0580 cv        1 CO9     -0.166000
     19 C12         6.5190   -0.1250    9.2500 cv        1 CO9      0.051000
     20 C13         6.9540   -1.5250    8.7580 cy        1 CO9      0.056000
     21 C14         6.3310   -1.0590    7.4080 cv        1 CO9      0.181000
     22 C15         6.6320   -2.8420    5.7470 c3        1 CO9     -0.107000
     23 C16         7.1070   -2.7350    4.3670 c1        1 CO9     -0.078000
     24 C17         7.3970   -3.8580    3.5950 c2        1 CO9     -0.517000
     25 C18         7.8860   -3.7750    2.3530 c1        1 CO9      0.456000
     26 C19         9.5220   -2.0240    8.7670 c1        1 CO9     -0.072000
     27 C20         8.3480   -1.7920    8.7440 c1        1 CO9     -0.255000
     28 C21         5.1990    1.3410    7.5250 c2        1 CO9      0.379000
     29 C22         2.5600   -1.4490    2.6830 c2        1 CO9     -0.047000
     30 H11A       -1.8430   -3.3560    1.3700 ha        1 CO9      0.000000
     31 H12         2.5900    2.2590    3.9700 ha        1 CO9      0.216000
     32 H13        -1.2340   -3.4870    1.6360 ha        1 CO9      0.000000
     33 HN11        0.8330    2.9430    1.4920 hn        1 CO9      0.143667
     34 HN12        2.3590    3.2960    1.0600 hn        1 CO9      0.143667
     35 H2          3.9880    2.9970    5.9480 h4        1 CO9      0.192000
     36 HN4         3.9760   -7.3520    4.2450 h4        1 CO9      0.109000
     37 H61         0.8070   -3.0950    2.8230 h1        1 CO9      0.100000
     38 H62         0.2850   -4.8250    2.9140 h1        1 CO9      0.100000
     39 H71         1.7220   -7.7190    4.5350 ha        1 CO9      0.140500
     40 H72         0.7220   -4.0710    0.5810 hc        1 CO9      0.091000
     41 H81         1.7950   -5.4570    1.0490 hc        1 CO9      0.091000
     42 H82         2.4760   -3.7860    0.9600 hc        1 CO9      0.091000
     43 H9          0.4290   -6.3940    4.4250 ha        1 CO9      0.140500
     44 H11         3.7250   -2.7230    7.1700 hn        1 CO9      0.143667
     45 H121        3.3930   -2.3730    8.7220 hn        1 CO9      0.143667
     46 H122        6.6480    0.3370   10.2250 ha        1 CO9      0.212000
     47 H14         6.3610   -2.3560    9.2300 hc        1 CO9      0.182000
     48 H16         7.4360   -3.2360    6.4370 h1        1 CO9      0.171000
     49 H17         7.1560   -4.8930    3.9500 ha        1 CO9      0.202000
     50 H18        10.5670   -2.2290    8.7880 ha        1 CO9      0.249000
     51 H19         5.7150   -3.5160    5.8260 h1        1 CO9      0.171000
     52 H22         2.3140   -1.8010    1.6830 h4        1 CO9      0.220000
     53 O4          4.7070    1.0240    6.2700 os        1 CO9     -0.258000
     54 O2          4.8320   -5.6330    3.5350 o         1 CO9     -0.304000
     55 O3          4.9520    2.4370    8.0120 o         1 CO9     -0.274000
     56 H131        1.9260    1.7500    1.3260 hn        1 CO9      0.143667
     57 H42         3.3440   -1.2050    7.5970 hn        1 CO9      0.143667
     58 HN5         5.7410   -0.9480    5.5060 hn        1 CO9      0.302000
@<TRIPOS>BOND
     1    1    4 1
     2    1   35 1
     3    1   53 1
     4    2   33 1
     5    2   34 1
     6    2   56 1
     7    3   10 1
     8    4    6 1
     9    4   31 1
    10    5    6 1
    11    5    8 1
    12    6   12 1
    13    7   10 1
    14    7   13 1
    15    7   16 1
    16    8   10 1
    17    8   29 1
    18    9   44 1
    19    9   45 1
    20    9   57 1
    21   11   21 1
    22   11   22 1
    23   11   58 1
    24   12   29 1
    25   13   14 1
    26   13   37 1
    27   13   38 1
    28   14   40 1
    29   14   41 1
    30   14   42 1
    31   15   16 1
    32   15   39 1
    33   15   43 1
    34   16   17 1
    35   17   36 1
    36   17   54 1
    37   18   19 1
    38   18   21 1
    39   18   28 1
    40   19   20 1
    41   19   46 1
    42   20   21 1
    43   20   27 1
    44   20   47 1
    45   22   23 1
    46   22   48 1
    47   22   51 1
    48   23   24 1
    49   24   25 1
    50   24   49 1
    51   26   27 1
    52   26   50 1
    53   28   53 1
    54   28   55 1
    55   29   52 1
    56   30   32 1
@<TRIPOS>SUBSTRUCTURE
     1 CO9         1 TEMP              0 ****  ****    0 ROOT
