@<TRIPOS>MOLECULE
molecule
   43    45     1     0     0
SMALL
bcc


@<TRIPOS>ATOM
      1 C1           0.0000     0.0000     0.0000 c3         1 COC       0.144700
      2 O5           1.4510     0.0000     0.0000 os         1 COC      -0.431900
      3 C6           2.1220     0.0000     1.1620 c          1 COC       0.641100
      4 O7           1.5190     0.0020     2.2090 o          1 COC      -0.520000
      5 C8           3.6290    -0.0010     1.1620 c3         1 COC      -0.098700
      6 C10          4.1430     0.0060     2.6100 c3         1 COC       0.157500
      7 N12          3.5400     1.1880     3.2850 n3         1 COC      -0.631600
      8 C14          3.9510     1.1270     4.6930 c3         1 COC       0.120100
      9 C18          5.6770     0.3430     2.5670 c3         1 COC      -0.121400
     10 C21          5.7420     1.8820     2.6220 c3         1 COC      -0.122400
     11 C24          4.2670     2.3380     2.6860 c3         1 COC       0.136500
     12 C26          3.7610     2.4970     1.2440 c3         1 COC      -0.094400
     13 C29          4.1430     1.2500     0.4450 c3         1 COC       0.163100
     14 O1           3.5500     1.3250    -0.8790 os         1 COC      -0.419900
     15 C2           4.2260     1.9090    -1.8870 c          1 COC       0.655700
     16 O3           5.3310     2.3730    -1.6890 o          1 COC      -0.560000
     17 C4           3.6230     1.9850    -3.2340 ca         1 COC      -0.132600
     18 C5           4.3210     2.5900    -4.2810 ca         1 COC      -0.071000
     19 C7           3.7520     2.6570    -5.5360 ca         1 COC      -0.147500
     20 C9           2.4940     2.1290    -5.7570 ca         1 COC      -0.097000
     21 C11          1.7970     1.5280    -4.7240 ca         1 COC      -0.147500
     22 C13          2.3560     1.4490    -3.4650 ca         1 COC      -0.071000
     23 H2          -0.3610    -0.0820    -1.0180 h1         1 COC       0.045033
     24 H3          -0.3610     0.9230     0.4380 h1         1 COC       0.045033
     25 H4          -0.3610    -0.8410     0.5800 h1         1 COC       0.045033
     26 H9           3.9910    -0.8860     0.6530 hc         1 COC       0.081700
     27 H11          3.9360    -0.9200     3.1320 h1         1 COC       0.092700
     28 H15          3.0720     1.1280     5.3260 h1         1 COC       0.037700
     29 H16          4.5660     1.9880     4.9270 h1         1 COC       0.037700
     30 H17          4.5190     0.2200     4.8640 h1         1 COC       0.037700
     31 H19          6.1180    -0.0210     1.6460 hc         1 COC       0.053200
     32 H20          6.1830    -0.0880     3.4230 hc         1 COC       0.053200
     33 H22          6.2190     2.2710     1.7310 hc         1 COC       0.056200
     34 H23          6.2760     2.2050     3.5080 hc         1 COC       0.056200
     35 H25          4.1450     3.2450     3.2660 h1         1 COC       0.081700
     36 H27          4.2170     3.3710     0.7940 hc         1 COC       0.067200
     37 H28          2.6840     2.6110     1.2470 hc         1 COC       0.067200
     38 H30          5.2210     1.1960     0.3540 h1         1 COC       0.077700
     39 H6           5.3060     3.0040    -4.1080 ha         1 COC       0.155500
     40 H8           4.2920     3.1260    -6.3490 ha         1 COC       0.135500
     41 H10          2.0510     2.1860    -6.7440 ha         1 COC       0.132000
     42 H12          0.8130     1.1140    -4.9050 ha         1 COC       0.135500
     43 H14          1.8090     0.9780    -2.6570 ha         1 COC       0.155500
@<TRIPOS>BOND
     1     1     2 1
     2     1    23 1
     3     1    24 1
     4     1    25 1
     5     2     3 1
     6     3     4 2
     7     3     5 1
     8     5     6 1
     9     5    13 1
    10     5    26 1
    11     6     7 1
    12     6     9 1
    13     6    27 1
    14     7     8 1
    15     7    11 1
    16     8    28 1
    17     8    29 1
    18     8    30 1
    19     9    10 1
    20     9    31 1
    21     9    32 1
    22    10    11 1
    23    10    33 1
    24    10    34 1
    25    11    12 1
    26    11    35 1
    27    12    13 1
    28    12    36 1
    29    12    37 1
    30    13    14 1
    31    13    38 1
    32    14    15 1
    33    15    16 2
    34    15    17 1
    35    17    18 ar
    36    17    22 ar
    37    18    19 ar
    38    18    39 1
    39    19    20 ar
    40    19    40 1
    41    20    21 ar
    42    20    41 1
    43    21    22 ar
    44    21    42 1
    45    22    43 1
@<TRIPOS>SUBSTRUCTURE
     1 COC         1 TEMP              0 ****  ****    0 ROOT
