@<TRIPOS>MOLECULE
COE
   53    53     1     0     0
SMALL
bcc


@<TRIPOS>ATOM
      1 N1         -0.1920   -2.3400    1.3300 n2        1 COE     -0.249000
      2 C2          0.4730   -1.7670    0.2540 c2        1 COE      0.162000
      3 NA2         0.8200   -2.6340   -0.8090 nh        1 COE     -0.310000
      4 N3          0.8680   -0.4460    0.1250 n2        1 COE     -0.321000
      5 C4          0.6740    0.3890    1.1990 c2        1 COE      0.217000
      6 N4          1.1390    1.6980    1.1180 nh        1 COE     -0.333000
      7 C4A         0.0430   -0.0900    2.3750 c2        1 COE     -0.274000
      8 C6         -0.3710    0.4340    3.6720 c2        1 COE      0.125000
      9 C7         -1.0160   -0.6210    4.3130 c2        1 COE     -0.331000
     10 O8         -1.0310   -1.8020    3.5190 os        1 COE     -0.087000
     11 C8A        -0.3770   -1.4690    2.3480 c2        1 COE      0.146000
     12 C9         -0.1320    1.7200    4.1570 c2        1 COE     -0.597000
     13 N10        -0.6250    2.1420    5.4390 n4        1 COE      0.190000
     14 C10         0.4530    2.8080    6.2290 c3        1 COE     -0.188000
     15 C11        -3.9580    4.8160    5.3270 ca        1 COE     -0.107000
     16 C12        -3.3650    4.3960    4.1300 ca        1 COE     -0.090500
     17 C13        -2.2880    3.5130    4.1440 ca        1 COE     -0.114500
     18 C14        -1.8050    3.0350    5.3720 ca        1 COE     -0.088000
     19 C15        -2.4360    3.4060    6.5700 ca        1 COE     -0.114500
     20 C16        -3.5020    4.3020    6.5440 ca        1 COE     -0.090500
     21 O          -5.8110    5.8910    4.2540 o         1 COE     -0.450000
     22 N          -5.2380    6.6710    6.3100 n         1 COE     -0.417000
     23 CA         -3.5520    7.1010    9.0270 c2        1 COE     -0.483000
     24 CB         -2.6450    6.1040    9.1220 c2        1 COE      0.037000
     25 CG         -2.7810    4.9370    9.8990 c2        1 COE     -0.570000
     26 CD         -1.8220    3.9110    9.8880 c2        1 COE      0.355000
     27 OE1        -1.9840    2.8270   10.7480 oh        1 COE     -0.351000
     28 OE2        -0.7960    3.7380    9.1810 o         1 COE     -0.512000
     29 CT         -7.7120    7.3650    3.7030 c1        1 COE      0.453000
     30 O1         -7.6080    7.8780    4.7740 o         1 COE     -0.230000
     31 O2         -7.8800    6.9090    2.6180 o         1 COE     -0.230000
     32 HN21        0.2610   -3.4560   -0.8690 hn        1 COE      0.198500
     33 HN22        0.9690   -2.1800   -1.6820 hn        1 COE      0.198500
     34 HN41        0.6750    2.3390    1.7210 hn        1 COE      0.209000
     35 HN42        1.3680    2.0450    0.2150 hn        1 COE      0.209000
     36 H7         -1.5200   -0.7610    5.2570 h4        1 COE      0.172000
     37 H91        -0.9290    1.3100    5.9630 hn        1 COE      0.224000
     38 H92         0.4920    2.4610    3.6590 hx        1 COE      0.145000
     39 H101        1.3240    2.1060    6.2880 hx        1 COE      0.132667
     40 H102        0.7640    3.7470    5.7050 hx        1 COE      0.132667
     41 H103        0.0780    3.0600    7.2630 hx        1 COE      0.132667
     42 H12        -1.8240    3.1860    3.1990 ha        1 COE      0.178500
     43 H13        -3.7610    4.7740    3.1740 ha        1 COE      0.170500
     44 H15        -2.0780    3.0420    7.5540 ha        1 COE      0.178500
     45 H16        -2.7460    2.9940   11.3130 ho        1 COE      0.195000
     46 HN         -4.6510    6.6440    7.1170 hn        1 COE      0.249500
     47 HA         -5.9740    7.3330    6.2730 hn        1 COE      0.249500
     48 HB1        -3.3550    8.0040    8.4410 ha        1 COE      0.081000
     49 HB2        -1.7070    6.1800    8.5360 ha        1 COE      0.092000
     50 HG1        -3.9380    4.6070    7.5160 ha        1 COE      0.170500
     51 HG2        -3.6430    4.8440   10.5680 ha        1 COE      0.101000
     52 H2         -4.4860    7.0990    9.5930 ha        1 COE      0.081000
     53 C          -5.0620    5.8140    5.2630 c2        1 COE      0.351000
@<TRIPOS>BOND
     1    1    2 1
     2    1   11 1
     3    2    3 1
     4    2    4 1
     5    3   32 1
     6    3   33 1
     7    4    5 1
     8    5    6 1
     9    5    7 1
    10    6   34 1
    11    6   35 1
    12    7    8 1
    13    7   11 1
    14    8    9 1
    15    8   12 1
    16    9   10 1
    17    9   36 1
    18   10   11 1
    19   12   13 1
    20   12   38 1
    21   13   14 1
    22   13   18 1
    23   13   37 1
    24   14   39 1
    25   14   40 1
    26   14   41 1
    27   15   16 1
    28   15   20 1
    29   15   53 1
    30   16   17 1
    31   16   43 1
    32   17   18 1
    33   17   42 1
    34   18   19 1
    35   19   20 1
    36   19   44 1
    37   20   50 1
    38   21   53 1
    39   22   46 1
    40   22   47 1
    41   22   53 1
    42   23   24 1
    43   23   48 1
    44   23   52 1
    45   24   25 1
    46   24   49 1
    47   25   26 1
    48   25   51 1
    49   26   27 1
    50   26   28 1
    51   27   45 1
    52   29   30 1
    53   29   31 1
@<TRIPOS>SUBSTRUCTURE
     1 COE         1 TEMP              0 ****  ****    0 ROOT
