@<TRIPOS>MOLECULE
COG
   46    48     1     0     0
SMALL
bcc


@<TRIPOS>ATOM
      1 C2B          0.0000     0.0000     0.0000 ca         1 COG       0.742900
      2 C4B         -0.1430    -0.0020     2.3100 ca         1 COG       0.540200
      3 C4A          1.2730    -0.0030     2.3720 ca         1 COG      -0.267600
      4 C5B          1.9590    -0.0080     3.5910 ca         1 COG      -0.182000
      5 C6B          3.3390    -0.0020     3.5900 ca         1 COG       0.062600
      6 C7B          4.0500    -0.0010     2.3870 ca         1 COG      -0.139000
      7 C8A          1.9980     0.0000     1.1580 ca         1 COG       0.401600
      8 C21          9.5550    -1.2170     4.8280 c3         1 COG       0.217700
      9 C7'          5.4980    -0.0030     4.8100 c3         1 COG       0.239100
     10 C61          3.2950    -0.0050     6.0690 c3         1 COG       0.209100
     11 C1'          6.0000    -1.4240     4.8110 ca         1 COG      -0.123300
     12 C2'          7.3630    -1.6760     4.8180 ca         1 COG       0.100100
     13 C3'          7.8260    -2.9840     4.8170 ca         1 COG      -0.173000
     14 C4'          6.9290    -4.0330     4.8120 ca         1 COG      -0.180000
     15 C5'          5.5660    -3.7810     4.8060 ca         1 COG       0.104100
     16 C51          5.4530    -6.0170     4.8010 c3         1 COG       0.216700
     17 C6'          5.1030    -2.4730     4.8010 ca         1 COG      -0.107000
     18 N1'          1.3180     0.0000     0.0000 nb         1 COG      -0.671000
     19 N2'         -0.6630     0.0010    -1.2150 nv         1 COG      -0.635500
     20 N3'         -0.7200    -0.0010     1.1180 nb         1 COG      -0.726000
     21 N4'         -0.9020    -0.0040     3.4620 nv         1 COG      -0.507500
     22 C8'          3.3990     0.0000     1.1890 ca         1 COG      -0.114300
     23 O2'          8.2470    -0.6430     4.8240 os         1 COG      -0.285900
     24 O5'          4.6820    -4.8140     4.8000 os         1 COG      -0.280900
     25 N6'          4.0330    -0.0030     4.8040 nh         1 COG      -0.391000
     26 H5'          1.4130    -0.0090     4.5270 ha         1 COG       0.116000
     27 H7'          5.1330     0.0040     2.4070 ha         1 COG       0.120000
     28 H211         9.6770    -1.8320     5.7120 h1         1 COG       0.002700
     29 H212        10.2960    -0.4270     4.8320 h1         1 COG       0.002700
     30 H213         9.6840    -1.8290     3.9420 h1         1 COG       0.002700
     31 H7'1         5.8550     0.5060     5.6970 h1         1 COG       0.037700
     32 H7'2         5.8630     0.5080     3.9280 h1         1 COG       0.037700
     33 H611         2.7520     0.9270     6.1720 h1         1 COG       0.005700
     34 H612         2.5960    -0.8330     6.0790 h1         1 COG       0.005700
     35 H613         3.9910    -0.1110     6.8930 h1         1 COG       0.005700
     36 H3'          8.8920    -3.1820     4.8220 ha         1 COG       0.132000
     37 H4'          7.2910    -5.0550     4.8140 ha         1 COG       0.132000
     38 H511         6.0810    -6.0450     3.9190 h1         1 COG       0.001700
     39 H512         4.7880    -6.8720     4.7980 h1         1 COG       0.001700
     40 H513         6.0750    -6.0460     5.6880 h1         1 COG       0.001700
     41 H6'          4.0380    -2.2760     4.7960 ha         1 COG       0.133000
     42 HN21        -0.7770     0.8560    -1.7230 hn         1 COG       0.274800
     43 HN22        -1.0370    -0.8520    -1.5810 hn         1 COG       0.274800
     44 HN41        -0.4550     0.0510     4.3560 hn         1 COG       0.273300
     45 HN42        -1.9000    -0.0490     3.4040 hn         1 COG       0.273300
     46 H8'          3.9640     0.0010     0.2650 ha         1 COG       0.117000
@<TRIPOS>BOND
     1     1    18 ar  
     2     1    19 1   
     3     1    20 ar  
     4     2     3 ar  
     5     2    20 ar  
     6     2    21 1   
     7     3     4 ar  
     8     3     7 ar  
     9     4     5 ar  
    10     4    26 1   
    11     5     6 ar  
    12     5    25 1   
    13     6    22 ar  
    14     6    27 1   
    15     7    18 ar  
    16     7    22 ar  
    17     8    23 1   
    18     8    28 1   
    19     8    29 1   
    20     8    30 1   
    21     9    11 1   
    22     9    25 1   
    23     9    31 1   
    24     9    32 1   
    25    10    25 1   
    26    10    33 1   
    27    10    34 1   
    28    10    35 1   
    29    11    12 ar  
    30    11    17 ar  
    31    12    13 ar  
    32    12    23 1   
    33    13    14 ar  
    34    13    36 1   
    35    14    15 ar  
    36    14    37 1   
    37    15    17 ar  
    38    15    24 1   
    39    16    24 1   
    40    16    38 1   
    41    16    39 1   
    42    16    40 1   
    43    17    41 1   
    44    19    42 1   
    45    19    43 1   
    46    21    44 1   
    47    21    45 1   
    48    22    46 1   
@<TRIPOS>SUBSTRUCTURE
     1 COG         1 TEMP              0 ****  ****    0 ROOT
