@<TRIPOS>MOLECULE
molecule
   18    17     1     0     0
SMALL
bcc


@<TRIPOS>ATOM
      1 C1           0.0000     0.0000     0.0000 c          1 COI       0.805600
      2 O1           1.2130     0.0000     0.0000 o          1 COI      -0.816800
      3 O2          -0.6730     0.0000     1.1650 o          1 COI      -0.816800
      4 C2          -0.7450     0.0060    -1.2910 c          1 COI       0.473100
      5 O3          -1.9530     0.0060    -1.2920 o          1 COI      -0.552100
      6 C3           0.0090     0.0120    -2.5960 c3         1 COI      -0.182400
      7 C4          -0.9840     0.0170    -3.7600 c3         1 COI      -0.071700
      8 C5          -0.2230     0.1490    -5.0800 c3         1 COI      -0.085600
      9 C6          -1.7790    -1.2900    -3.7570 c3         1 COI      -0.085600
     10 H31          0.6310     0.8970    -2.6490 hc         1 COI       0.060700
     11 H32          0.6320    -0.8720    -2.6570 hc         1 COI       0.060700
     12 H4          -1.6640     0.8530    -3.6510 hc         1 COI       0.053700
     13 H51          0.3640     1.0590    -5.0690 hc         1 COI       0.026200
     14 H52         -0.9280     0.1840    -5.9020 hc         1 COI       0.026200
     15 H53          0.4340    -0.7030    -5.2040 hc         1 COI       0.026200
     16 H61         -2.7190    -1.1410    -3.2390 hc         1 COI       0.026200
     17 H62         -1.9740    -1.5970    -4.7780 hc         1 COI       0.026200
     18 H63         -1.2070    -2.0590    -3.2520 hc         1 COI       0.026200
@<TRIPOS>BOND
     1     1     2 1
     2     1     3 1
     3     1     4 1
     4     4     5 2
     5     4     6 1
     6     6     7 1
     7     6    10 1
     8     6    11 1
     9     7     8 1
    10     7     9 1
    11     7    12 1
    12     8    13 1
    13     8    14 1
    14     8    15 1
    15     9    16 1
    16     9    17 1
    17     9    18 1
@<TRIPOS>SUBSTRUCTURE
     1 COI         1 TEMP              0 ****  ****    0 ROOT
