@<TRIPOS>MOLECULE
COI
   18    17     1     0     0
SMALL
bcc


@<TRIPOS>ATOM
      1 C1          0.0270    0.0990    0.0110 c         1 COI      0.853600
      2 O1          0.7270    1.0910    0.3500 o         1 COI     -0.816800
      3 O2          0.0070   -1.0210    0.5870 o         1 COI     -0.816800
      4 C2         -0.8380    0.2530   -1.2510 c         1 COI      0.469100
      5 O3         -2.0110    0.6430   -1.2540 o         1 COI     -0.596100
      6 C3         -0.1060   -0.1110   -2.5180 c3        1 COI     -0.192400
      7 C4         -0.9480   -0.0440   -3.7800 c3        1 COI     -0.063700
      8 C5         -0.0640   -0.0070   -5.0080 c3        1 COI     -0.085100
      9 C6         -1.9070   -1.2140   -3.8520 c3        1 COI     -0.085100
     10 H31         0.3080   -1.1450   -2.3830 hc        1 COI      0.064200
     11 H32         0.7640    0.5940   -2.6020 hc        1 COI      0.064200
     12 H4         -1.5560    0.9040   -3.7400 hc        1 COI      0.057700
     13 H51         0.5820   -0.9160   -5.0530 hc        1 COI      0.024867
     14 H52        -0.6850    0.0310   -5.9360 hc        1 COI      0.024867
     15 H53         0.5960    0.8940   -4.9870 hc        1 COI      0.024867
     16 H61        -1.3500   -2.1800   -3.9080 hc        1 COI      0.024867
     17 H62        -2.5490   -1.2240   -2.9360 hc        1 COI      0.024867
     18 H63        -2.5610   -1.1300   -4.7520 hc        1 COI      0.024867
@<TRIPOS>BOND
     1    1    2 1   
     2    1    3 1   
     3    1    4 1   
     4    4    5 2   
     5    4    6 1   
     6    6    7 1   
     7    6   10 1   
     8    6   11 1   
     9    7    8 1   
    10    7    9 1   
    11    7   12 1   
    12    8   13 1   
    13    8   14 1   
    14    8   15 1   
    15    9   16 1   
    16    9   17 1   
    17    9   18 1   
@<TRIPOS>SUBSTRUCTURE
     1 COI         1 TEMP              0 ****  ****    0 ROOT
