@<TRIPOS>MOLECULE
molecule
   25    26     1     0     0
SMALL
bcc


@<TRIPOS>ATOM
      1 S1           0.0000     0.0000     0.0000 ss         1 COL      -0.449200
      2 C2           1.8170     0.0000     0.0000 c3         1 COL       0.158000
      3 C3           2.3050     0.0000     1.4200 cc         1 COL      -0.165400
      4 C4           1.6530     0.3210     2.5510 cd         1 COL      -0.032300
      5 C5           0.2010     0.7680     2.6090 c3         1 COL      -0.020100
      6 C6          -0.2720     1.2840     1.2560 c3         1 COL       0.040700
      7 S13          3.9430    -0.4440     1.9440 ss         1 COL      -0.142800
      8 C14          3.7670    -0.2060     3.6480 cc         1 COL       0.161500
      9 C15          2.4490     0.2050     3.7720 cd         1 COL      -0.232600
     10 C16          1.8750     0.5190     5.0810 c          1 COL       0.899200
     11 O17          1.9500     1.7730     5.5690 o          1 COL      -0.848300
     12 O18          1.3300    -0.3540     5.7300 o          1 COL      -0.848300
     13 N19          4.7090    -0.3860     4.6440 ns         1 COL      -0.405100
     14 C20          5.9510    -0.8010     4.3300 c          1 COL       0.550100
     15 C21          6.9680    -0.9950     5.4060 c          1 COL       0.837600
     16 O22          8.2090    -1.4100     5.0920 o          1 COL      -0.817300
     17 O23          6.6760    -0.7820     6.5620 o          1 COL      -0.817300
     18 O24          6.2450    -1.0160     3.1720 o          1 COL      -0.621100
     19 H21          2.1560     0.9130    -0.4750 h1         1 COL       0.059200
     20 H22A         2.1560    -0.9130    -0.4750 h1         1 COL       0.059200
     21 H51         -0.4170    -0.0720     2.9030 hc         1 COL       0.074200
     22 H52          0.1030     1.5600     3.3430 hc         1 COL       0.074200
     23 H61          0.3290     2.1460     0.9940 h1         1 COL       0.057700
     24 H62         -1.3360     1.4750     1.3190 h1         1 COL       0.057700
     25 H19          4.4680    -0.2060     5.5990 hn         1 COL       0.370500
@<TRIPOS>BOND
     1     1     2 1
     2     1     6 1
     3     2     3 1
     4     2    19 1
     5     2    20 1
     6     3     4 2
     7     3     7 1
     8     4     5 1
     9     4     9 1
    10     5     6 1
    11     5    21 1
    12     5    22 1
    13     6    23 1
    14     6    24 1
    15     7     8 1
    16     8     9 2
    17     8    13 1
    18     9    10 1
    19    10    11 1
    20    10    12 1
    21    13    14 1
    22    13    25 1
    23    14    15 1
    24    14    18 2
    25    15    16 1
    26    15    17 1
@<TRIPOS>SUBSTRUCTURE
     1 COL         1 TEMP              0 ****  ****    0 ROOT
