@<TRIPOS>MOLECULE
molecule
   12    11     1     0     0
SMALL
bcc


@<TRIPOS>ATOM
      1 C1           0.0000     0.0000     0.0000 c3         1 COM       0.089700
      2 C2           1.5300     0.0000     0.0000 c3         1 COM      -0.235600
      3 S1          -0.6050     0.0000     1.7100 sh         1 COM      -0.472900
      4 S2           2.1340    -0.0000    -1.7090 s6         1 COM       1.240800
      5 O1S          1.8890     1.2440    -2.3510 o          1 COM      -0.698867
      6 O2S          1.8880    -1.2420    -2.3530 o          1 COM      -0.698867
      7 O3S          3.6470     0.0010    -1.5430 o          1 COM      -0.698867
      8 H11         -0.3610     0.8840    -0.5110 h1         1 COM       0.053700
      9 H12         -0.3610    -0.8840    -0.5110 h1         1 COM       0.053700
     10 H21          1.8910     0.8840     0.5110 h1         1 COM       0.089700
     11 H22          1.8910    -0.8840     0.5110 h1         1 COM       0.089700
     12 HS1         -1.9330    -0.0000     1.7100 hs         1 COM       0.186800
@<TRIPOS>BOND
     1     1     2 1
     2     1     3 1
     3     1     8 1
     4     1     9 1
     5     2     4 1
     6     2    10 1
     7     2    11 1
     8     3    12 1
     9     4     5 1
    10     4     6 1
    11     4     7 1
@<TRIPOS>SUBSTRUCTURE
     1 COM         1 TEMP              0 ****  ****    0 ROOT
