@<TRIPOS>MOLECULE
COM
   12    11     1     0     0
SMALL
bcc


@<TRIPOS>ATOM
      1 C1          0.0440    0.0010   -0.0120 c3        1 COM      0.094700
      2 C2          1.5300   -0.0050   -0.0090 c3        1 COM     -0.280600
      3 S1         -0.5180   -0.0050    1.6850 sh        1 COM     -0.457900
      4 S2          2.2060    0.0040   -1.6730 s6        1 COM      1.427800
      5 O1S         1.7040    1.1890   -2.2590 o         1 COM     -0.747867
      6 O2S         1.7120   -1.1790   -2.2680 o         1 COM     -0.747867
      7 O3S         3.6040    0.0080   -1.4680 o         1 COM     -0.747867
      8 H11        -0.3510   -0.9040   -0.5370 h1        1 COM      0.065200
      9 H12        -0.3440    0.9130   -0.5280 h1        1 COM      0.065200
     10 H21         1.9190   -0.9090    0.5200 h1        1 COM      0.078200
     11 H22         1.9250    0.8880    0.5320 h1        1 COM      0.078200
     12 HS1        -1.8200    0.0030    1.4800 hs        1 COM      0.173800
@<TRIPOS>BOND
     1    1    2 1   
     2    1    3 1   
     3    1    8 1   
     4    1    9 1   
     5    2    4 1   
     6    2   10 1   
     7    2   11 1   
     8    3   12 1   
     9    4    5 1   
    10    4    6 1   
    11    4    7 1   
@<TRIPOS>SUBSTRUCTURE
     1 COM         1 TEMP              0 ****  ****    0 ROOT
