@<TRIPOS>MOLECULE
molecule
   67    70     1     0     0
SMALL
bcc


@<TRIPOS>ATOM
      1 C3           0.0000     0.0000     0.0000 ca         1 COP       0.958900
      2 C1          -0.1670    -0.0160     2.3090 ca         1 COP       0.723900
      3 C10          1.2960    -0.0110     2.3700 ca         1 COP       0.093000
      4 C8           3.2700    -0.0140     3.5210 ca         1 COP       0.273300
      5 C7           3.9770    -0.0040     2.3190 ca         1 COP       0.354900
      6 C5           2.0100     0.0000     1.1450 ca         1 COP       0.600000
      7 C11          4.0200    -0.0190     4.8280 c3         1 COP       0.197500
      8 C13          4.9390     1.6060     6.4480 ca         1 COP       0.195600
      9 C18          5.1660     2.9170     6.8580 ca         1 COP      -0.222000
     10 C17          5.8380     3.1660     8.0330 ca         1 COP      -0.044000
     11 C16          6.2940     2.1000     8.8150 ca         1 COP      -0.165600
     12 C15          6.0640     0.7860     8.4000 ca         1 COP      -0.044000
     13 C14          5.3860     0.5440     7.2270 ca         1 COP      -0.222000
     14 C19          7.0140     2.3630    10.0730 c          1 COP       0.668700
     15 C21          8.1700     1.5960    12.0770 c3         1 COP       0.007700
     16 C24          9.6470     1.6940    11.7990 c          1 COP       0.888600
     17 C27          7.9100     0.4550    13.0610 c3         1 COP      -0.077400
     18 C28          6.4100     0.3560    13.3440 c3         1 COP      -0.106400
     19 C29          6.1510    -0.7870    14.3280 c3         1 COP       0.115000
     20 N4           1.3170     0.0000     0.0000 nb         1 COP      -0.733000
     21 N3          -0.6560     0.0060    -1.2170 nv         1 COP      -1.060500
     22 N2          -0.7330    -0.0090     1.1090 nb         1 COP      -0.781000
     23 N1          -0.9290    -0.0260     3.4560 nv         1 COP      -1.066500
     24 N9           1.9540    -0.0160     3.5240 nb         1 COP      -0.592000
     25 N6           3.3440     0.0030     1.1660 nb         1 COP      -0.641000
     26 N12          4.2590     1.3580     5.2610 nu         1 COP      -0.833600
     27 N20          7.4540     1.3350    10.8260 ns         1 COP      -0.525900
     28 O19          7.2140     3.5080    10.4330 o          1 COP      -0.640100
     29 O24         10.3460     2.3990    12.4870 o          1 COP      -0.846300
     30 O25         10.1860     0.9990    10.7850 o          1 COP      -0.846300
     31 N30          4.7160    -0.8810    14.5980 ns         1 COP      -0.595900
     32 C31          4.2490    -1.8210    15.4440 c          1 COP       0.683700
     33 O32          5.0210    -2.5920    15.9810 o          1 COP      -0.561100
     34 C33          2.7980    -1.9180    15.7170 ca         1 COP      -0.112600
     35 C38          2.1190    -3.1340    15.5180 ca         1 COP      -0.058600
     36 C37          0.7550    -3.2120    15.7840 ca         1 COP      -0.106000
     37 C36          0.0740    -2.0960    16.2310 ca         1 COP      -0.157000
     38 C35          0.7400    -0.8980    16.4210 ca         1 COP      -0.167000
     39 C34          2.0960    -0.8040    16.1670 ca         1 COP      -0.138000
     40 C39          2.8520    -4.3250    15.0410 c          1 COP       0.873200
     41 O40          4.0150    -4.2280    14.7010 o          1 COP      -0.821800
     42 O41          2.2320    -5.5190    14.9800 o          1 COP      -0.821800
     43 H7           5.0610    -0.0020     2.3350 h4         1 COP       0.046100
     44 H111         4.9680    -0.5270     4.6980 h1         1 COP       0.060700
     45 H112         3.4340    -0.5370     5.5780 h1         1 COP       0.060700
     46 H18          4.8120     3.7420     6.2520 ha         1 COP       0.120000
     47 H17          6.0650     4.1850     8.3210 ha         1 COP       0.149000
     48 H15          6.4580    -0.0410     8.9790 ha         1 COP       0.149000
     49 H14          5.1980    -0.4750     6.9110 ha         1 COP       0.120000
     50 H21          7.8210     2.5280    12.5050 h1         1 COP       0.070700
     51 H271         8.2600    -0.4770    12.6330 hc         1 COP       0.055200
     52 H272         8.4400     0.6480    13.9860 hc         1 COP       0.055200
     53 H281         5.8810     0.1620    12.4190 hc         1 COP       0.036200
     54 H282         6.0610     1.2880    13.7720 hc         1 COP       0.036200
     55 H291         6.6800    -0.5930    15.2540 h1         1 COP       0.049200
     56 H292         6.5000    -1.7190    13.9010 h1         1 COP       0.049200
     57 HN31        -0.9500     0.8720    -1.6220 hn         1 COP       0.443800
     58 HN32        -0.8350    -0.8560    -1.6920 hn         1 COP       0.443800
     59 HN11        -1.2380    -0.8950     3.8430 hn         1 COP       0.452300
     60 HN12        -1.2000     0.8370     3.8830 hn         1 COP       0.452300
     61 HN2          3.9320     2.1220     4.7030 hn         1 COP       0.432800
     62 HN0          7.3250     0.3940    10.5110 hn         1 COP       0.308500
     63 HN3          4.0790    -0.2590    14.1410 hn         1 COP       0.299500
     64 H37          0.2260    -4.1460    15.6360 ha         1 COP       0.152000
     65 H36         -0.9880    -2.1590    16.4350 ha         1 COP       0.098000
     66 H35          0.1960    -0.0290    16.7710 ha         1 COP       0.098000
     67 H34          2.6110     0.1360    16.3180 ha         1 COP       0.113000
@<TRIPOS>BOND
     1     1    20 ar
     2     1    21 1
     3     1    22 ar
     4     2     3 ar
     5     2    22 ar
     6     2    23 1
     7     3     6 ar
     8     3    24 ar
     9     4     5 ar
    10     4     7 1
    11     4    24 ar
    12     5    25 ar
    13     5    43 1
    14     6    20 ar
    15     6    25 ar
    16     7    26 1
    17     7    44 1
    18     7    45 1
    19     8     9 ar
    20     8    13 ar
    21     8    26 1
    22     9    10 ar
    23     9    46 1
    24    10    11 ar
    25    10    47 1
    26    11    12 ar
    27    11    14 1
    28    12    13 ar
    29    12    48 1
    30    13    49 1
    31    14    27 1
    32    14    28 2
    33    15    16 1
    34    15    17 1
    35    15    27 1
    36    15    50 1
    37    16    29 1
    38    16    30 1
    39    17    18 1
    40    17    51 1
    41    17    52 1
    42    18    19 1
    43    18    53 1
    44    18    54 1
    45    19    31 1
    46    19    55 1
    47    19    56 1
    48    21    57 1
    49    21    58 1
    50    23    59 1
    51    23    60 1
    52    26    61 1
    53    27    62 1
    54    31    32 1
    55    31    63 1
    56    32    33 2
    57    32    34 1
    58    34    35 ar
    59    34    39 ar
    60    35    36 ar
    61    35    40 1
    62    36    37 ar
    63    36    64 1
    64    37    38 ar
    65    37    65 1
    66    38    39 ar
    67    38    66 1
    68    39    67 1
    69    40    41 1
    70    40    42 1
@<TRIPOS>SUBSTRUCTURE
     1 COP         1 TEMP              0 ****  ****    0 ROOT
