@<TRIPOS>MOLECULE
molecule
   45    47     1     0     0
SMALL
bcc


@<TRIPOS>ATOM
      1 C2B          0.0000     0.0000     0.0000 ca         1 COQ       0.973900
      2 C4B         -0.1420    -0.0000     2.3090 ca         1 COQ       0.752200
      3 C4A          1.2730    -0.0000     2.3680 ca         1 COQ      -0.339600
      4 C5B          1.9650    -0.0050     3.5850 ca         1 COQ      -0.151000
      5 C6B          3.3490    -0.0000     3.5440 ca         1 COQ       0.056300
      6 C7'          4.0000     0.0010     2.3100 ca         1 COQ       0.417200
      7 C8A          2.0010     0.0000     1.1550 ca         1 COQ       0.702300
      8 C9'          5.5530    -0.0020     4.6810 c3         1 COQ       0.285100
      9 C1'          6.0550    -1.4220     4.6640 ca         1 COQ      -0.053300
     10 C2'          6.2440    -2.0720     3.4610 ca         1 COQ      -0.182500
     11 C3'          6.7050    -3.3800     3.4410 ca         1 COQ       0.157600
     12 C4'          6.9720    -4.0360     4.6320 ca         1 COQ      -0.315000
     13 C5'          6.7870    -3.3800     5.8390 ca         1 COQ       0.157600
     14 C6'          6.3250    -2.0730     5.8520 ca         1 COQ      -0.182500
     15 C31          7.3660    -5.3300     2.5640 c3         1 COQ       0.105700
     16 C51          7.5040    -5.3320     6.6680 c3         1 COQ       0.105700
     17 CN'          3.4000    -0.0010     6.0240 c3         1 COQ       0.232100
     18 N1'          1.3190     0.0000     0.0000 nb         1 COQ      -0.755000
     19 N2'         -0.6610    -0.0000    -1.2140 nv         1 COQ      -1.058500
     20 N3'         -0.7210    -0.0000     1.1180 nb         1 COQ      -0.839000
     21 N4'         -0.8980    -0.0010     3.4620 nv         1 COQ      -0.994500
     22 N8'          3.3340     0.0000     1.1790 nb         1 COQ      -0.641000
     23 N9'          4.0890    -0.0010     4.7310 nh         1 COQ      -0.728000
     24 O3'          6.8910    -4.0190     2.2570 os         1 COQ      -0.290900
     25 O5'          7.0520    -4.0200     7.0080 os         1 COQ      -0.290900
     26 H5'          1.4340    -0.0060     4.5300 ha         1 COQ       0.131000
     27 H7'          5.0830     0.0050     2.2850 h4         1 COQ       0.030100
     28 H9'1         5.9440     0.5090     5.5530 h1         1 COQ       0.060700
     29 H9'2         5.8840     0.5090     3.7860 h1         1 COQ       0.060700
     30 H2'          6.0340    -1.5580     2.5300 ha         1 COQ       0.145000
     31 H4'          7.3330    -5.0570     4.6200 ha         1 COQ       0.155000
     32 H6'          6.1800    -1.5600     6.7950 ha         1 COQ       0.145000
     33 H311         8.2970    -5.2580     3.1140 h1         1 COQ       0.043867
     34 H312         7.5310    -5.8790     1.6450 h1         1 COQ       0.043867
     35 H313         6.6300    -5.8490     3.1670 h1         1 COQ       0.043867
     36 H511         8.3960    -5.2590     6.0570 h1         1 COQ       0.043867
     37 H512         6.7290    -5.8490     6.1160 h1         1 COQ       0.043867
     38 H513         7.7310    -5.8820     7.5730 h1         1 COQ       0.043867
     39 HCN1         2.7300     0.8480     6.0760 h1         1 COQ       0.036367
     40 HCN2         4.1300     0.0650     6.8220 h1         1 COQ       0.036367
     41 HCN3         2.8310    -0.9170     6.1290 h1         1 COQ       0.036367
     42 HN21        -0.9340     0.8660    -1.6360 hn         1 COQ       0.443300
     43 HN22        -0.8680    -0.8660    -1.6710 hn         1 COQ       0.443300
     44 HN41        -1.8970    -0.0030     3.4050 hn         1 COQ       0.444300
     45 HN42        -0.4480     0.0020     4.3550 hn         1 COQ       0.444300
@<TRIPOS>BOND
     1     1    18 ar
     2     1    19 1
     3     1    20 ar
     4     2     3 ar
     5     2    20 ar
     6     2    21 1
     7     3     4 ar
     8     3     7 ar
     9     4     5 ar
    10     4    26 1
    11     5     6 ar
    12     5    23 1
    13     6    22 ar
    14     6    27 1
    15     7    18 ar
    16     7    22 ar
    17     8     9 1
    18     8    23 1
    19     8    28 1
    20     8    29 1
    21     9    10 ar
    22     9    14 ar
    23    10    11 ar
    24    10    30 1
    25    11    12 ar
    26    11    24 1
    27    12    13 ar
    28    12    31 1
    29    13    14 ar
    30    13    25 1
    31    14    32 1
    32    15    24 1
    33    15    33 1
    34    15    34 1
    35    15    35 1
    36    16    25 1
    37    16    36 1
    38    16    37 1
    39    16    38 1
    40    17    23 1
    41    17    39 1
    42    17    40 1
    43    17    41 1
    44    19    42 1
    45    19    43 1
    46    21    44 1
    47    21    45 1
@<TRIPOS>SUBSTRUCTURE
     1 COQ         1 TEMP              0 ****  ****    0 ROOT
