@<TRIPOS>MOLECULE
COR
   44    45     1     0     0
SMALL
bcc


@<TRIPOS>ATOM
      1 C1           0.0000     0.0000     0.0000 c3         1 COR       0.047900
      2 C2           1.5300     0.0000     0.0000 c3         1 COR      -0.109000
      3 N2           2.0190     0.0000     1.3840 nz         1 COR       0.040900
      4 C3           2.0390     1.2490    -0.7210 c3         1 COR       0.168100
      5 O3           1.5630     2.4160    -0.0460 oh         1 COR      -0.560800
      6 C4           3.5700     1.2490    -0.7200 c3         1 COR      -0.109000
      7 N4           4.0590     0.0510    -1.4130 nz         1 COR       0.040900
      8 C5           4.0790     2.5000    -1.4400 c3         1 COR       0.047900
      9 C1A         -0.5020    -1.2310     0.7090 ca         1 COR      -0.208800
     10 C2A         -0.7330    -1.1970     2.0710 ca         1 COR      -0.103500
     11 C3A         -1.1940    -2.3270     2.7220 ca         1 COR      -0.062500
     12 C4A         -1.4240    -3.4880     2.0110 ca         1 COR      -0.041000
     13 C5A         -1.1940    -3.5220     0.6490 ca         1 COR      -0.062500
     14 C6A         -0.7380    -2.3910    -0.0030 ca         1 COR      -0.103500
     15 C1B          5.5860     2.4990    -1.4400 ca         1 COR      -0.208800
     16 C2B          6.2770     1.9030    -2.4770 ca         1 COR      -0.103500
     17 C3B          7.6600     1.9030    -2.4770 ca         1 COR      -0.062500
     18 C4B          8.3500     2.5020    -1.4410 ca         1 COR      -0.041000
     19 C5B          7.6590     3.0990    -0.4040 ca         1 COR      -0.062500
     20 C6B          6.2770     3.1030    -0.4070 ca         1 COR      -0.103500
     21 H11         -0.3610     0.8840     0.5120 hc         1 COR       0.064700
     22 H12         -0.3610     0.0010    -1.0210 hc         1 COR       0.064700
     23 H2           1.8910    -0.8840    -0.5110 hx         1 COR       0.076200
     24 HN21         2.4880     0.8640     1.5720 hn         1 COR       0.241800
     25 HN22         1.2460    -0.1040     2.0110 hn         1 COR       0.241800
     26 H3           1.6780     1.2500    -1.7420 h1         1 COR       0.065700
     27 HO3          1.1050     2.9680    -0.6580 ho         1 COR       0.461000
     28 H4           3.9310     1.2490     0.3010 hx         1 COR       0.076200
     29 HN41         3.5360    -0.7470    -1.1090 hn         1 COR       0.241800
     30 HN42         5.0270    -0.0850    -1.2010 hn         1 COR       0.241800
     31 H51          3.7180     3.3840    -0.9290 hc         1 COR       0.064700
     32 H52          3.7180     2.5010    -2.4620 hc         1 COR       0.064700
     33 H2A         -0.5520    -0.2870     2.6290 ha         1 COR       0.103250
     34 H3A         -1.3750    -2.3010     3.7900 ha         1 COR       0.131750
     35 H4A         -1.7840    -4.3730     2.5210 ha         1 COR       0.134500
     36 H5A         -1.3770    -4.4320     0.0910 ha         1 COR       0.131750
     37 H6A         -0.5580    -2.4170    -1.0710 ha         1 COR       0.103250
     38 H2B          5.7350     1.4330    -3.2900 ha         1 COR       0.103250
     39 H3B          8.2020     1.4350    -3.2900 ha         1 COR       0.131750
     40 H4B          9.4330     2.5010    -1.4400 ha         1 COR       0.134500
     41 H5B          8.2000     3.5700     0.4070 ha         1 COR       0.131750
     42 H6B          5.7350     3.5710     0.4060 ha         1 COR       0.103250
     43 H23          2.6730    -0.7480     1.5070 hn         1 COR       0.241800
     44 H43          3.9270     0.1590    -2.3990 hn         1 COR       0.241800
@<TRIPOS>BOND
     1     1     2 1   
     2     1     9 1   
     3     1    21 1   
     4     1    22 1   
     5     2     3 1   
     6     2     4 1   
     7     2    23 1   
     8     3    24 1   
     9     3    25 1   
    10     3    43 1   
    11     4     5 1   
    12     4     6 1   
    13     4    26 1   
    14     5    27 1   
    15     6     7 1   
    16     6     8 1   
    17     6    28 1   
    18     7    29 1   
    19     7    30 1   
    20     7    44 1   
    21     8    15 1   
    22     8    31 1   
    23     8    32 1   
    24     9    10 ar  
    25     9    14 ar  
    26    10    11 ar  
    27    10    33 1   
    28    11    12 ar  
    29    11    34 1   
    30    12    13 ar  
    31    12    35 1   
    32    13    14 ar  
    33    13    36 1   
    34    14    37 1   
    35    15    16 ar  
    36    15    20 ar  
    37    16    17 ar  
    38    16    38 1   
    39    17    18 ar  
    40    17    39 1   
    41    18    19 ar  
    42    18    40 1   
    43    19    20 ar  
    44    19    41 1   
    45    20    42 1   
@<TRIPOS>SUBSTRUCTURE
     1 COR         1 TEMP              0 ****  ****    0 ROOT
