@<TRIPOS>MOLECULE
molecule
   44    45     1     0     0
SMALL
bcc


@<TRIPOS>ATOM
      1 C1           0.0000     0.0000     0.0000 c3         1 COR      -0.041100
      2 C2           1.5300     0.0000     0.0000 c3         1 COR       0.078500
      3 N2           2.0190     0.0000     1.3840 nz         1 COR      -0.813600
      4 C3           2.0390     1.2490    -0.7210 c3         1 COR       0.100100
      5 O3           1.5630     2.4160    -0.0460 oh         1 COR      -0.576800
      6 C4           3.5700     1.2490    -0.7200 c3         1 COR       0.078500
      7 N4           4.0590     0.0510    -1.4130 nz         1 COR      -0.813600
      8 C5           4.0790     2.5000    -1.4400 c3         1 COR      -0.041100
      9 C1A         -0.5020    -1.2310     0.7090 ca         1 COR      -0.179800
     10 C2A         -0.7330    -1.1970     2.0710 ca         1 COR      -0.136000
     11 C3A         -1.1940    -2.3270     2.7220 ca         1 COR      -0.097000
     12 C4A         -1.4240    -3.4880     2.0110 ca         1 COR      -0.079500
     13 C5A         -1.1940    -3.5220     0.6490 ca         1 COR      -0.097000
     14 C6A         -0.7380    -2.3910    -0.0030 ca         1 COR      -0.136000
     15 C1B          5.5860     2.4990    -1.4400 ca         1 COR      -0.179800
     16 C2B          6.2770     1.9030    -2.4770 ca         1 COR      -0.136000
     17 C3B          7.6600     1.9030    -2.4770 ca         1 COR      -0.097000
     18 C4B          8.3500     2.5020    -1.4410 ca         1 COR      -0.079500
     19 C5B          7.6590     3.0990    -0.4040 ca         1 COR      -0.097000
     20 C6B          6.2770     3.1030    -0.4070 ca         1 COR      -0.136000
     21 H11         -0.3610     0.8840     0.5120 hc         1 COR       0.101950
     22 H12         -0.3610     0.0010    -1.0210 hc         1 COR       0.101950
     23 H2           1.8910    -0.8840    -0.5110 hx         1 COR       0.094700
     24 HN21         2.4880     0.8640     1.5720 hn         1 COR       0.465300
     25 HN22         1.2460    -0.1040     2.0110 hn         1 COR       0.465300
     26 H3           1.6780     1.2500    -1.7420 h1         1 COR       0.105700
     27 HO3          1.1050     2.9680    -0.6580 ho         1 COR       0.472000
     28 H4           3.9310     1.2490     0.3010 hx         1 COR       0.094700
     29 HN41         3.5360    -0.7470    -1.1090 hn         1 COR       0.465300
     30 HN42         5.0270    -0.0850    -1.2010 hn         1 COR       0.465300
     31 H51          3.7180     3.3840    -0.9290 hc         1 COR       0.101950
     32 H52          3.7180     2.5010    -2.4620 hc         1 COR       0.101950
     33 H2A         -0.5520    -0.2870     2.6290 ha         1 COR       0.127000
     34 H3A         -1.3750    -2.3010     3.7900 ha         1 COR       0.166000
     35 H4A         -1.7840    -4.3730     2.5210 ha         1 COR       0.171000
     36 H5A         -1.3770    -4.4320     0.0910 ha         1 COR       0.166000
     37 H6A         -0.5580    -2.4170    -1.0710 ha         1 COR       0.127000
     38 H2B          5.7350     1.4330    -3.2900 ha         1 COR       0.127000
     39 H3B          8.2020     1.4350    -3.2900 ha         1 COR       0.166000
     40 H4B          9.4330     2.5010    -1.4400 ha         1 COR       0.171000
     41 H5B          8.2000     3.5700     0.4070 ha         1 COR       0.166000
     42 H6B          5.7350     3.5710     0.4060 ha         1 COR       0.127000
     43 H23          2.6730    -0.7480     1.5070 hn         1 COR       0.465300
     44 H43          3.9270     0.1590    -2.3990 hn         1 COR       0.465300
@<TRIPOS>BOND
     1     1     2 1
     2     1     9 1
     3     1    21 1
     4     1    22 1
     5     2     3 1
     6     2     4 1
     7     2    23 1
     8     3    24 1
     9     3    25 1
    10     4     5 1
    11     4     6 1
    12     4    26 1
    13     5    27 1
    14     6     7 1
    15     6     8 1
    16     6    28 1
    17     7    29 1
    18     7    30 1
    19     8    15 1
    20     8    31 1
    21     8    32 1
    22     9    10 ar
    23     9    14 ar
    24    10    11 ar
    25    10    33 1
    26    11    12 ar
    27    11    34 1
    28    12    13 ar
    29    12    35 1
    30    13    14 ar
    31    13    36 1
    32    14    37 1
    33    15    16 ar
    34    15    20 ar
    35    16    17 ar
    36    16    38 1
    37    17    18 ar
    38    17    39 1
    39    18    19 ar
    40    18    40 1
    41    19    20 ar
    42    19    41 1
    43    20    42 1
    44    43     3 1
    45    44     7 1
@<TRIPOS>SUBSTRUCTURE
     1 COR         1 TEMP              0 ****  ****    0 ROOT
