@<TRIPOS>MOLECULE
COU
   17    18     1     0     0
SMALL
bcc


@<TRIPOS>ATOM
      1 C1         -0.0020    0.0080   -0.0460 c         1 COU      0.717800
      2 C2          1.4540    0.0150   -0.0000 cc        1 COU     -0.251200
      3 C3          2.1070    0.0090    1.1790 cd        1 COU     -0.012200
      4 C4          1.3570   -0.0070    2.4120 ca        1 COU     -0.155800
      5 C5          1.9680   -0.0150    3.6770 ca        1 COU     -0.072000
      6 C6          1.1930   -0.0290    4.8270 ca        1 COU     -0.159000
      7 C7         -0.2070   -0.0360    4.7390 ca        1 COU     -0.083000
      8 C8         -0.8410   -0.0280    3.5050 ca        1 COU     -0.148000
      9 C9         -0.0500   -0.0140    2.3400 ca        1 COU      0.151100
     10 O1         -0.7500    0.0120   -1.0220 o         1 COU     -0.563500
     11 O2         -0.7340   -0.0070    1.1430 os        1 COU     -0.323200
     12 H2          1.9640    0.0270   -0.9750 ha        1 COU      0.170000
     13 H3          3.2070    0.0140    1.2390 ha        1 COU      0.148000
     14 H5          3.0660   -0.0090    3.7440 ha        1 COU      0.139000
     15 H6          1.6740   -0.0350    5.8160 ha        1 COU      0.141000
     16 H7         -0.8100   -0.0470    5.6600 ha        1 COU      0.142000
     17 H8         -1.9360   -0.0330    3.4160 ha        1 COU      0.161000
@<TRIPOS>BOND
     1    1    2 1
     2    1   10 2
     3    1   11 1
     4    2    3 2
     5    2   12 1
     6    3    4 1
     7    3   13 1
     8    4    5 ar
     9    4    9 ar
    10    5    6 ar
    11    5   14 1
    12    6    7 ar
    13    6   15 1
    14    7    8 ar
    15    7   16 1
    16    8    9 ar
    17    8   17 1
    18    9   11 1
@<TRIPOS>SUBSTRUCTURE
     1 COU         1 TEMP              0 ****  ****    0 ROOT
